@<TRIPOS>MOLECULE
*****
 35 37 0 0 0
SMALL
GASTEIGER

@<TRIPOS>ATOM
      1 C          63.4845   86.8580   15.5784 C.ar    1  UNL1        0.1041
      2 N          63.8333   86.7139   14.1267 N.ar    1  UNL1       -0.2443
      3 C          64.1363   87.9308   13.3038 C.ar    1  UNL1        0.0986
      4 C          64.0905   89.2918   13.9325 C.ar    1  UNL1        0.0216
      5 C          63.7417   89.4360   15.3842 C.ar    1  UNL1        0.0325
      6 C          63.4387   88.2190   16.2072 C.ar    1  UNL1        0.1552
      7 F          63.0899   88.3632   17.6590 F       1  UNL1       -0.2029
      8 C          64.3935   90.5088   13.1095 C.ar    1  UNL1        0.0077
      9 C          65.4543   91.4708   13.5556 C.ar    1  UNL1        0.0117
     10 C          65.7573   92.6877   12.7327 C.ar    1  UNL1        0.0599
     11 CL         66.8183   93.6497   13.1788 Cl      1  UNL1       -0.0822
     12 C          64.9994   92.9426   11.4636 C.ar    1  UNL1        0.0411
     13 C          63.9386   91.9806   11.0175 C.ar    1  UNL1        0.1440
     14 F          63.1806   92.2355    9.7484 F       1  UNL1       -0.2040
     15 C          63.6356   90.7637   11.8405 C.ar    1  UNL1        0.0669
     16 C          62.5746   89.8017   11.3943 C.ar    1  UNL1        0.2079
     17 N          61.2960   89.5012   12.1187 N.ar    1  UNL1       -0.1077
     18 N          60.5372   88.4851   11.3176 N.ar    1  UNL1       -0.0450
     19 N          61.3469   88.1576   10.0981 N.ar    1  UNL1       -0.1488
     20 C          60.9646   87.1869    9.0203 C.3     1  UNL1        0.1795
     21 N          62.6061   88.9713   10.1455 N.ar    1  UNL1       -0.1296
     22 C          62.5962   85.7908   17.7743 C.3     1  UNL1        0.0279
     23 C          63.1815   85.6411   16.4014 C.3     1  UNL1        0.1142
     24 N          63.4638   84.2744   15.8514 N.am    1  UNL1       -0.2986
     25 C          62.7746   83.8117   14.6021 C.2     1  UNL1        0.2552
     26 O          61.8391   84.8375   14.0345 O.2     1  UNL1       -0.2723
     27 H          64.1013   83.6811   16.3105 H       1  UNL1        0.1498
     28 C          63.0569   82.4449   14.0521 C.3     1  UNL1        0.2443
     29 C          63.3392   81.0783   13.5021 C.3     1  UNL1        0.0478
     30 O          62.3963   81.8269   15.2486 O.3     1  UNL1       -0.3719
     31 H          62.3743   82.4704   15.9741 H       1  UNL1        0.2111
     32 C          63.7176   83.0629   12.8556 C.3     1  UNL1        0.4274
     33 F          64.3782   83.6809   11.6590 F       1  UNL1       -0.1671
     34 F          64.9448   83.5598   13.5606 F       1  UNL1       -0.1671
     35 F          62.5623   82.6382   11.9984 F       1  UNL1       -0.1671
@<TRIPOS>BOND
     1    23    22    1
     2    23    24    1
     3    24    25   am
     4    25    26    2
     5    25    28    1
     6    28    29    1
     7    28    30    1
     8    28    32    1
     9    32    33    1
    10    32    34    1
    11    32    35    1
    12    23     1    1
    13     1     2   ar
    14     2     3   ar
    15     3     4   ar
    16     4     8    1
    17     8     9   ar
    18     9    10   ar
    19    10    11    1
    20    10    12   ar
    21    12    13   ar
    22    13    14    1
    23    13    15   ar
    24    15    16    1
    25    16    17   ar
    26    17    18   ar
    27    18    19   ar
    28    19    20    1
    29    19    21   ar
    30     4     5   ar
    31     5     6   ar
    32     6     7    1
    33     6     1   ar
    34    15     8   ar
    35    21    16   ar
    36    24    27    1
    37    30    31    1
@<TRIPOS>MOLECULE
*****
 35 37 0 0 0
SMALL
GASTEIGER

@<TRIPOS>ATOM
      1 C          63.3281   87.2740   15.8008 C.ar    1  UNL1        0.1041
      2 N          62.8995   88.5958   16.3658 N.ar    1  UNL1       -0.2443
      3 C          63.5190   89.8644   15.8590 C.ar    1  UNL1        0.0986
      4 C          64.5671   89.8113   14.7873 C.ar    1  UNL1        0.0216
      5 C          64.9957   88.4895   14.2223 C.ar    1  UNL1        0.0325
      6 C          64.3762   87.2209   14.7291 C.ar    1  UNL1        0.1552
      7 F          64.8048   85.8991   14.1641 F       1  UNL1       -0.2029
      8 C          65.1866   91.0799   14.2805 C.ar    1  UNL1        0.0077
      9 C          66.2334   91.7808   15.0947 C.ar    1  UNL1        0.0117
     10 C          66.8529   93.0494   14.5879 C.ar    1  UNL1        0.0599
     11 CL         67.8997   93.7503   15.4022 Cl      1  UNL1       -0.0822
     12 C          66.4257   93.6171   13.2669 C.ar    1  UNL1        0.0411
     13 C          65.3789   92.9162   12.4527 C.ar    1  UNL1        0.1440
     14 F          64.9517   93.4839   11.1316 F       1  UNL1       -0.2040
     15 C          64.7594   91.6476   12.9595 C.ar    1  UNL1        0.0669
     16 C          63.7126   90.9467   12.1451 C.ar    1  UNL1        0.2079
     17 N          63.7870   90.6562   10.6754 N.ar    1  UNL1       -0.1077
     18 N          62.5281   89.9432   10.2795 N.ar    1  UNL1       -0.0450
     19 N          61.6756   89.7930   11.5046 N.ar    1  UNL1       -0.1488
     20 C          60.3277   89.1377   11.5659 C.3     1  UNL1        0.1795
     21 N          62.4077   90.4132   12.6576 N.ar    1  UNL1       -0.1296
     22 C          62.5834   85.7694   17.7836 C.3     1  UNL1        0.0279
     23 C          62.7085   86.0054   16.3076 C.3     1  UNL1        0.1142
     24 N          62.2142   84.9729   15.3384 N.am    1  UNL1       -0.2986
     25 C          63.0538   83.7680   15.0331 C.2     1  UNL1        0.2552
     26 O          64.3536   83.7544   15.7817 O.2     1  UNL1       -0.2723
     27 H          61.3387   85.0860   14.9027 H       1  UNL1        0.1498
     28 C          62.5594   82.7354   14.0638 C.3     1  UNL1        0.2443
     29 C          62.0651   81.7029   13.0946 C.3     1  UNL1        0.0478
     30 O          61.7951   82.0657   15.1671 O.3     1  UNL1       -0.3719
     31 H          62.1676   82.3274   16.0236 H       1  UNL1        0.2111
     32 C          63.3238   83.4051   12.9606 C.3     1  UNL1        0.4274
     33 F          64.0882   84.0748   11.8572 F       1  UNL1       -0.1671
     34 F          62.2758   84.4156   12.5992 F       1  UNL1       -0.1671
     35 F          64.4735   82.4692   13.1890 F       1  UNL1       -0.1671
@<TRIPOS>BOND
     1    23    22    1
     2    23    24    1
     3    24    25   am
     4    25    26    2
     5    25    28    1
     6    28    29    1
     7    28    30    1
     8    28    32    1
     9    32    33    1
    10    32    34    1
    11    32    35    1
    12    23     1    1
    13     1     2   ar
    14     2     3   ar
    15     3     4   ar
    16     4     8    1
    17     8     9   ar
    18     9    10   ar
    19    10    11    1
    20    10    12   ar
    21    12    13   ar
    22    13    14    1
    23    13    15   ar
    24    15    16    1
    25    16    17   ar
    26    17    18   ar
    27    18    19   ar
    28    19    20    1
    29    19    21   ar
    30     4     5   ar
    31     5     6   ar
    32     6     7    1
    33     6     1   ar
    34    15     8   ar
    35    21    16   ar
    36    24    27    1
    37    30    31    1
@<TRIPOS>MOLECULE
*****
 35 37 0 0 0
SMALL
GASTEIGER

@<TRIPOS>ATOM
      1 C          62.9224   88.7718   12.0520 C.ar    1  UNL1        0.1041
      2 N          63.6817   88.1113   13.1642 N.ar    1  UNL1       -0.2443
      3 C          63.6691   86.6172   13.2970 C.ar    1  UNL1        0.0986
      4 C          62.8971   85.7837   12.3176 C.ar    1  UNL1        0.0216
      5 C          62.1377   86.4443   11.2054 C.ar    1  UNL1        0.0325
      6 C          62.1504   87.9383   11.0727 C.ar    1  UNL1        0.1552
      7 F          61.3909   88.5989    9.9604 F       1  UNL1       -0.2029
      8 C          62.8845   84.2897   12.4504 C.ar    1  UNL1        0.0077
      9 C          63.1922   83.4284   11.2615 C.ar    1  UNL1        0.0117
     10 C          63.1796   81.9344   11.3943 C.ar    1  UNL1        0.0599
     11 CL         63.4874   81.0731   10.2053 Cl      1  UNL1       -0.0822
     12 C          62.8592   81.3015   12.7160 C.ar    1  UNL1        0.0411
     13 C          62.5515   82.1628   13.9048 C.ar    1  UNL1        0.1440
     14 F          62.2311   81.5300   15.2266 F       1  UNL1       -0.2040
     15 C          62.5641   83.6568   13.7721 C.ar    1  UNL1        0.0669
     16 C          62.2564   84.5181   14.9610 C.ar    1  UNL1        0.2079
     17 N          60.9026   85.0349   15.3486 N.ar    1  UNL1       -0.1077
     18 N          61.0578   85.8499   16.5982 N.ar    1  UNL1       -0.0450
     19 N          62.5076   85.8368   16.9830 N.ar    1  UNL1       -0.1488
     20 C          63.1108   86.5259   18.1710 C.3     1  UNL1        0.1795
     21 N          63.2483   85.0137   15.9712 N.ar    1  UNL1       -0.1296
     22 C          62.0615   90.9357   10.9003 C.3     1  UNL1        0.0279
     23 C          62.9350   90.2659   11.9193 C.3     1  UNL1        0.1142
     24 N          63.8211   91.0901   12.8054 N.am    1  UNL1       -0.2986
     25 C          64.8907   91.9524   12.2034 C.2     1  UNL1        0.2552
     26 O          64.9352   91.8715   10.7063 O.2     1  UNL1       -0.2723
     27 H          63.7007   91.0652   13.7822 H       1  UNL1        0.1498
     28 C          65.7769   92.7767   13.0896 C.3     1  UNL1        0.2443
     29 C          66.6630   93.6009   13.9758 C.3     1  UNL1        0.0478
     30 O          65.0716   92.2358   14.2979 O.3     1  UNL1       -0.3719
     31 H          64.2033   91.8905   14.0379 H       1  UNL1        0.2111
     32 C          66.4821   93.3175   11.8813 C.3     1  UNL1        0.4274
     33 F          67.1875   93.8584   10.6729 F       1  UNL1       -0.1671
     34 F          65.5673   94.4819   11.6415 F       1  UNL1       -0.1671
     35 F          67.4904   92.2109   11.9745 F       1  UNL1       -0.1671
@<TRIPOS>BOND
     1    23    22    1
     2    23    24    1
     3    24    25   am
     4    25    26    2
     5    25    28    1
     6    28    29    1
     7    28    30    1
     8    28    32    1
     9    32    33    1
    10    32    34    1
    11    32    35    1
    12    23     1    1
    13     1     2   ar
    14     2     3   ar
    15     3     4   ar
    16     4     8    1
    17     8     9   ar
    18     9    10   ar
    19    10    11    1
    20    10    12   ar
    21    12    13   ar
    22    13    14    1
    23    13    15   ar
    24    15    16    1
    25    16    17   ar
    26    17    18   ar
    27    18    19   ar
    28    19    20    1
    29    19    21   ar
    30     4     5   ar
    31     5     6   ar
    32     6     7    1
    33     6     1   ar
    34    15     8   ar
    35    21    16   ar
    36    24    27    1
    37    30    31    1
@<TRIPOS>MOLECULE
*****
 35 37 0 0 0
SMALL
GASTEIGER

@<TRIPOS>ATOM
      1 C          62.5977   88.5338   11.7755 C.ar    1  UNL1        0.1041
      2 N          63.4611   87.9494   12.8538 N.ar    1  UNL1       -0.2443
      3 C          63.5234   86.4625   13.0414 C.ar    1  UNL1        0.0986
      4 C          62.7223   85.5599   12.1506 C.ar    1  UNL1        0.0216
      5 C          61.8588   86.1443   11.0723 C.ar    1  UNL1        0.0325
      6 C          61.7965   87.6313   10.8847 C.ar    1  UNL1        0.1552
      7 F          60.9330   88.2156    9.8063 F       1  UNL1       -0.2029
      8 C          62.7846   84.0730   12.3382 C.ar    1  UNL1        0.0077
      9 C          63.0690   83.1806   11.1666 C.ar    1  UNL1        0.0117
     10 C          63.1313   81.6936   11.3542 C.ar    1  UNL1        0.0599
     11 CL         63.4157   80.8012   10.1825 Cl      1  UNL1       -0.0822
     12 C          62.9092   81.0992   12.7133 C.ar    1  UNL1        0.0411
     13 C          62.6248   81.9916   13.8849 C.ar    1  UNL1        0.1440
     14 F          62.4027   81.3972   15.2441 F       1  UNL1       -0.2040
     15 C          62.5625   83.4786   13.6973 C.ar    1  UNL1        0.0669
     16 C          62.2781   84.3710   14.8689 C.ar    1  UNL1        0.2079
     17 N          60.9333   84.9051   15.2645 N.ar    1  UNL1       -0.1077
     18 N          61.1126   85.7502   16.4907 N.ar    1  UNL1       -0.0450
     19 N          62.5682   85.7385   16.8530 N.ar    1  UNL1       -0.1488
     20 C          63.1936   86.4536   18.0138 C.3     1  UNL1        0.1795
     21 N          63.2885   84.8861   15.8507 N.ar    1  UNL1       -0.1296
     22 C          61.2073   90.7044   11.4514 C.3     1  UNL1        0.0279
     23 C          62.5354   90.0207   11.5879 C.3     1  UNL1        0.1142
     24 N          63.8012   90.8239   11.5369 N.am    1  UNL1       -0.2986
     25 C          64.3071   91.5057   12.7735 C.2     1  UNL1        0.2552
     26 O          63.4284   91.2808   13.9680 O.2     1  UNL1       -0.2723
     27 H          64.2999   90.9036   10.6918 H       1  UNL1        0.1498
     28 C          65.5730   92.3090   12.7224 C.3     1  UNL1        0.2443
     29 C          66.8388   93.1121   12.6714 C.3     1  UNL1        0.0478
     30 O          65.3027   92.6437   11.2855 O.3     1  UNL1       -0.3719
     31 H          64.6839   91.9960   10.9135 H       1  UNL1        0.2111
     32 C          65.8433   91.9742   14.1593 C.3     1  UNL1        0.4274
     33 F          66.1136   91.6395   15.5964 F       1  UNL1       -0.1671
     34 F          65.8301   90.4822   14.0052 F       1  UNL1       -0.1671
     35 F          65.8898   93.4363   14.4912 F       1  UNL1       -0.1671
@<TRIPOS>BOND
     1    23    22    1
     2    23    24    1
     3    24    25   am
     4    25    26    2
     5    25    28    1
     6    28    29    1
     7    28    30    1
     8    28    32    1
     9    32    33    1
    10    32    34    1
    11    32    35    1
    12    23     1    1
    13     1     2   ar
    14     2     3   ar
    15     3     4   ar
    16     4     8    1
    17     8     9   ar
    18     9    10   ar
    19    10    11    1
    20    10    12   ar
    21    12    13   ar
    22    13    14    1
    23    13    15   ar
    24    15    16    1
    25    16    17   ar
    26    17    18   ar
    27    18    19   ar
    28    19    20    1
    29    19    21   ar
    30     4     5   ar
    31     5     6   ar
    32     6     7    1
    33     6     1   ar
    34    15     8   ar
    35    21    16   ar
    36    24    27    1
    37    30    31    1
@<TRIPOS>MOLECULE
*****
 35 37 0 0 0
SMALL
GASTEIGER

@<TRIPOS>ATOM
      1 C          63.5538   89.1060   13.1419 C.ar    1  UNL1        0.1041
      2 N          63.2772   87.6702   12.8073 N.ar    1  UNL1       -0.2443
      3 C          62.4945   87.3246   11.5752 C.ar    1  UNL1        0.0986
      4 C          61.9885   88.4148   10.6778 C.ar    1  UNL1        0.0216
      5 C          62.2651   89.8506   11.0124 C.ar    1  UNL1        0.0325
      6 C          63.0477   90.1962   12.2445 C.ar    1  UNL1        0.1552
      7 F          63.3243   91.6320   12.5791 F       1  UNL1       -0.2029
      8 C          61.2058   88.0692    9.4457 C.ar    1  UNL1        0.0077
      9 C          60.4082   89.1272    8.7425 C.ar    1  UNL1        0.0117
     10 C          59.6255   88.7816    7.5105 C.ar    1  UNL1        0.0599
     11 CL         58.8279   89.8396    6.8073 Cl      1  UNL1       -0.0822
     12 C          59.6405   87.3780    6.9815 C.ar    1  UNL1        0.0411
     13 C          60.4381   86.3201    7.6847 C.ar    1  UNL1        0.1440
     14 F          60.4532   84.9165    7.1558 F       1  UNL1       -0.2040
     15 C          61.2208   86.6657    8.9168 C.ar    1  UNL1        0.0669
     16 C          62.0185   85.6076    9.6199 C.ar    1  UNL1        0.2079
     17 N          63.2587   84.9453    9.0973 N.ar    1  UNL1       -0.1077
     18 N          63.7227   83.9545   10.1234 N.ar    1  UNL1       -0.0450
     19 N          62.7692   84.0046   11.2804 N.ar    1  UNL1       -0.1488
     20 C          62.8541   83.1780   12.5292 C.3     1  UNL1        0.1795
     21 N          61.7160   85.0262   10.9692 N.ar    1  UNL1       -0.1296
     22 C          63.9833   88.8209   15.6883 C.3     1  UNL1        0.0279
     23 C          64.3364   89.4516   14.3740 C.3     1  UNL1        0.1142
     24 N          65.4722   90.4279   14.2918 N.am    1  UNL1       -0.2986
     25 C          65.4268   91.6998   15.0855 C.2     1  UNL1        0.2552
     26 O          64.1778   91.8352   15.9049 O.2     1  UNL1       -0.2723
     27 H          66.2475   90.2338   13.7168 H       1  UNL1        0.1498
     28 C          66.5627   92.6762   15.0032 C.3     1  UNL1        0.2443
     29 C          67.6985   93.6524   14.9209 C.3     1  UNL1        0.0478
     30 O          66.4357   92.9478   16.4729 O.3     1  UNL1       -0.3719
     31 H          65.5521   92.6856   16.7750 H       1  UNL1        0.2111
     32 C          66.6897   92.4045   13.5335 C.3     1  UNL1        0.4274
     33 F          66.8167   92.1328   12.0638 F       1  UNL1       -0.1671
     34 F          65.4918   93.1948   13.0972 F       1  UNL1       -0.1671
     35 F          67.9122   91.5748   13.7925 F       1  UNL1       -0.1671
@<TRIPOS>BOND
     1    23    22    1
     2    23    24    1
     3    24    25   am
     4    25    26    2
     5    25    28    1
     6    28    29    1
     7    28    30    1
     8    28    32    1
     9    32    33    1
    10    32    34    1
    11    32    35    1
    12    23     1    1
    13     1     2   ar
    14     2     3   ar
    15     3     4   ar
    16     4     8    1
    17     8     9   ar
    18     9    10   ar
    19    10    11    1
    20    10    12   ar
    21    12    13   ar
    22    13    14    1
    23    13    15   ar
    24    15    16    1
    25    16    17   ar
    26    17    18   ar
    27    18    19   ar
    28    19    20    1
    29    19    21   ar
    30     4     5   ar
    31     5     6   ar
    32     6     7    1
    33     6     1   ar
    34    15     8   ar
    35    21    16   ar
    36    24    27    1
    37    30    31    1
@<TRIPOS>MOLECULE
*****
 35 37 0 0 0
SMALL
GASTEIGER

@<TRIPOS>ATOM
      1 C          63.3887   89.8942   13.1846 C.ar    1  UNL1        0.1041
      2 N          62.5856   90.8583   12.3627 N.ar    1  UNL1       -0.2443
      3 C          61.8322   90.3723   11.1601 C.ar    1  UNL1        0.0986
      4 C          61.8818   88.9223   10.7795 C.ar    1  UNL1        0.0216
      5 C          62.6849   87.9582   11.6014 C.ar    1  UNL1        0.0325
      6 C          63.4383   88.4442   12.8040 C.ar    1  UNL1        0.1552
      7 F          64.2414   87.4800   13.6259 F       1  UNL1       -0.2029
      8 C          61.1284   88.4364    9.5769 C.ar    1  UNL1        0.0077
      9 C          60.4121   89.4153    8.6946 C.ar    1  UNL1        0.0117
     10 C          59.6587   88.9294    7.4920 C.ar    1  UNL1        0.0599
     11 CL         58.9424   89.9084    6.6097 Cl      1  UNL1       -0.0822
     12 C          59.6215   87.4645    7.1718 C.ar    1  UNL1        0.0411
     13 C          60.3378   86.4855    8.0541 C.ar    1  UNL1        0.1440
     14 F          60.3006   85.0205    7.7338 F       1  UNL1       -0.2040
     15 C          61.0912   86.9715    9.2566 C.ar    1  UNL1        0.0669
     16 C          61.8075   85.9924   10.1390 C.ar    1  UNL1        0.2079
     17 N          62.9341   85.0927    9.7250 N.ar    1  UNL1       -0.1077
     18 N          63.3459   84.2854   10.9203 N.ar    1  UNL1       -0.0450
     19 N          62.4737   84.6862   12.0730 N.ar    1  UNL1       -0.1488
     20 C          62.5406   84.1297   13.4644 C.3     1  UNL1        0.1795
     21 N          61.5230   85.7411   11.5901 N.ar    1  UNL1       -0.1296
     22 C          63.4104   90.6700   15.6640 C.3     1  UNL1        0.0279
     23 C          64.1422   90.3801   14.3872 C.3     1  UNL1        0.1142
     24 N          65.6274   90.5762   14.3129 N.am    1  UNL1       -0.2986
     25 C          66.1885   91.8674   13.7953 C.2     1  UNL1        0.2552
     26 O          65.1273   92.8498   13.3970 O.2     1  UNL1       -0.2723
     27 H          66.2340   89.8574   14.6039 H       1  UNL1        0.1498
     28 C          67.6738   92.0635   13.7211 C.3     1  UNL1        0.2443
     29 C          69.1591   92.2595   13.6469 C.3     1  UNL1        0.0478
     30 O          67.6232   91.8838   12.2328 O.3     1  UNL1       -0.3719
     31 H          66.8078   91.4174   11.9910 H       1  UNL1        0.2111
     32 C          67.7245   92.2431   15.2094 C.3     1  UNL1        0.4274
     33 F          67.7751   92.4228   16.6978 F       1  UNL1       -0.1671
     34 F          67.2853   93.6772   15.2356 F       1  UNL1       -0.1671
     35 F          68.1732   90.8204   15.3659 F       1  UNL1       -0.1671
@<TRIPOS>BOND
     1    23    22    1
     2    23    24    1
     3    24    25   am
     4    25    26    2
     5    25    28    1
     6    28    29    1
     7    28    30    1
     8    28    32    1
     9    32    33    1
    10    32    34    1
    11    32    35    1
    12    23     1    1
    13     1     2   ar
    14     2     3   ar
    15     3     4   ar
    16     4     8    1
    17     8     9   ar
    18     9    10   ar
    19    10    11    1
    20    10    12   ar
    21    12    13   ar
    22    13    14    1
    23    13    15   ar
    24    15    16    1
    25    16    17   ar
    26    17    18   ar
    27    18    19   ar
    28    19    20    1
    29    19    21   ar
    30     4     5   ar
    31     5     6   ar
    32     6     7    1
    33     6     1   ar
    34    15     8   ar
    35    21    16   ar
    36    24    27    1
    37    30    31    1
@<TRIPOS>MOLECULE
*****
 35 37 0 0 0
SMALL
GASTEIGER

@<TRIPOS>ATOM
      1 C          62.3027   88.1858   11.0391 C.ar    1  UNL1        0.1041
      2 N          63.1033   87.9543   12.2863 N.ar    1  UNL1       -0.2443
      3 C          63.9058   89.0734   12.8809 C.ar    1  UNL1        0.0986
      4 C          63.9077   90.4240   12.2284 C.ar    1  UNL1        0.0216
      5 C          63.1072   90.6555   10.9812 C.ar    1  UNL1        0.0325
      6 C          62.3047   89.5363   10.3866 C.ar    1  UNL1        0.1552
      7 F          61.5041   89.7679    9.1393 F       1  UNL1       -0.2029
      8 C          64.7102   91.5431   12.8230 C.ar    1  UNL1        0.0077
      9 C          65.3511   92.5635   11.9297 C.ar    1  UNL1        0.0117
     10 C          66.1536   93.6826   12.5243 C.ar    1  UNL1        0.0599
     11 CL         66.7944   94.7030   11.6309 Cl      1  UNL1       -0.0822
     12 C          66.3152   93.7813   14.0123 C.ar    1  UNL1        0.0411
     13 C          65.6744   92.7609   14.9056 C.ar    1  UNL1        0.1440
     14 F          65.8360   92.8596   16.3937 F       1  UNL1       -0.2040
     15 C          64.8719   91.6418   14.3110 C.ar    1  UNL1        0.0669
     16 C          64.2310   90.6214   15.2044 C.ar    1  UNL1        0.2079
     17 N          63.2781   90.9067   16.3271 N.ar    1  UNL1       -0.1077
     18 N          62.8887   89.5982   16.9486 N.ar    1  UNL1       -0.0450
     19 N          63.6010   88.5041   16.2098 N.ar    1  UNL1       -0.1488
     20 C          63.5012   87.0355   16.4984 C.3     1  UNL1        0.1795
     21 N          64.4306   89.1365   15.1319 N.ar    1  UNL1       -0.1296
     22 C          60.0247   87.2324   10.2320 C.3     1  UNL1        0.0279
     23 C          61.5002   87.0667   10.4444 C.3     1  UNL1        0.1142
     24 N          62.1733   85.7818   10.0623 N.am    1  UNL1       -0.2986
     25 C          62.5591   84.7930   11.1223 C.2     1  UNL1        0.2552
     26 O          62.1994   85.2469   12.5059 O.2     1  UNL1       -0.2723
     27 H          62.3619   85.5874    9.1158 H       1  UNL1        0.1498
     28 C          63.2322   83.5081   10.7401 C.3     1  UNL1        0.2443
     29 C          63.9052   82.2233   10.3579 C.3     1  UNL1        0.0478
     30 O          63.2607   83.9494    9.3067 O.3     1  UNL1       -0.3719
     31 H          62.5959   84.6421    9.1684 H       1  UNL1        0.2111
     32 C          63.2036   83.0669   12.1734 C.3     1  UNL1        0.4274
     33 F          63.1750   82.6255   13.6068 F       1  UNL1       -0.1671
     34 F          64.4516   83.7765   12.6081 F       1  UNL1       -0.1671
     35 F          61.9428   82.2977   11.9114 F       1  UNL1       -0.1671
@<TRIPOS>BOND
     1    23    22    1
     2    23    24    1
     3    24    25   am
     4    25    26    2
     5    25    28    1
     6    28    29    1
     7    28    30    1
     8    28    32    1
     9    32    33    1
    10    32    34    1
    11    32    35    1
    12    23     1    1
    13     1     2   ar
    14     2     3   ar
    15     3     4   ar
    16     4     8    1
    17     8     9   ar
    18     9    10   ar
    19    10    11    1
    20    10    12   ar
    21    12    13   ar
    22    13    14    1
    23    13    15   ar
    24    15    16    1
    25    16    17   ar
    26    17    18   ar
    27    18    19   ar
    28    19    20    1
    29    19    21   ar
    30     4     5   ar
    31     5     6   ar
    32     6     7    1
    33     6     1   ar
    34    15     8   ar
    35    21    16   ar
    36    24    27    1
    37    30    31    1
@<TRIPOS>MOLECULE
*****
 35 37 0 0 0
SMALL
GASTEIGER

@<TRIPOS>ATOM
      1 C          61.1945   88.9248   11.4365 C.ar    1  UNL1        0.1041
      2 N          62.4091   88.3435   12.0975 N.ar    1  UNL1       -0.2443
      3 C          63.5863   89.2201   12.4072 C.ar    1  UNL1        0.0986
      4 C          63.5489   90.6779   12.0560 C.ar    1  UNL1        0.0216
      5 C          62.3343   91.2591   11.3950 C.ar    1  UNL1        0.0325
      6 C          61.1571   90.3825   11.0853 C.ar    1  UNL1        0.1552
      7 F          59.9425   90.9638   10.4243 F       1  UNL1       -0.2029
      8 C          64.7260   91.5545   12.3657 C.ar    1  UNL1        0.0077
      9 C          65.4709   92.2307   11.2531 C.ar    1  UNL1        0.0117
     10 C          66.6480   93.1073   11.5628 C.ar    1  UNL1        0.0599
     11 CL         67.3929   93.7835   10.4502 Cl      1  UNL1       -0.0822
     12 C          67.0803   93.3076   12.9851 C.ar    1  UNL1        0.0411
     13 C          66.3355   92.6314   14.0977 C.ar    1  UNL1        0.1440
     14 F          66.7677   92.8317   15.5201 F       1  UNL1       -0.2040
     15 C          65.1583   91.7548   13.7880 C.ar    1  UNL1        0.0669
     16 C          64.4134   91.0786   14.9006 C.ar    1  UNL1        0.2079
     17 N          63.6510   91.7641   15.9955 N.ar    1  UNL1       -0.1077
     18 N          63.0666   90.7074   16.8853 N.ar    1  UNL1       -0.0450
     19 N          63.4678   89.3687   16.3403 N.ar    1  UNL1       -0.1488
     20 C          63.1010   88.0348   16.9201 C.3     1  UNL1        0.1795
     21 N          64.3002   89.5981   15.1137 N.ar    1  UNL1       -0.1296
     22 C          58.6861   88.3295   11.7581 C.3     1  UNL1        0.0279
     23 C          60.0174   88.0482   11.1268 C.3     1  UNL1        0.1142
     24 N          60.1715   86.8903   10.1858 N.am    1  UNL1       -0.2986
     25 C          60.3974   87.1371    8.7236 C.2     1  UNL1        0.2552
     26 O          60.4419   88.5954    8.3754 O.2     1  UNL1       -0.2723
     27 H          60.1244   85.9684   10.5279 H       1  UNL1        0.1498
     28 C          60.5515   85.9791    7.7826 C.3     1  UNL1        0.2443
     29 C          60.7057   84.8212    6.8417 C.3     1  UNL1        0.0478
     30 O          59.0835   86.0303    7.4791 O.3     1  UNL1       -0.3719
     31 H          58.6220   86.4988    8.1922 H       1  UNL1        0.2111
     32 C          62.0196   85.9279    8.0861 C.3     1  UNL1        0.4274
     33 F          63.4877   85.8766    8.3896 F       1  UNL1       -0.1671
     34 F          62.0679   87.1450    8.9616 F       1  UNL1       -0.1671
     35 F          62.1512   84.6954    7.2414 F       1  UNL1       -0.1671
@<TRIPOS>BOND
     1    23    22    1
     2    23    24    1
     3    24    25   am
     4    25    26    2
     5    25    28    1
     6    28    29    1
     7    28    30    1
     8    28    32    1
     9    32    33    1
    10    32    34    1
    11    32    35    1
    12    23     1    1
    13     1     2   ar
    14     2     3   ar
    15     3     4   ar
    16     4     8    1
    17     8     9   ar
    18     9    10   ar
    19    10    11    1
    20    10    12   ar
    21    12    13   ar
    22    13    14    1
    23    13    15   ar
    24    15    16    1
    25    16    17   ar
    26    17    18   ar
    27    18    19   ar
    28    19    20    1
    29    19    21   ar
    30     4     5   ar
    31     5     6   ar
    32     6     7    1
    33     6     1   ar
    34    15     8   ar
    35    21    16   ar
    36    24    27    1
    37    30    31    1
@<TRIPOS>MOLECULE
*****
 35 37 0 0 0
SMALL
GASTEIGER

@<TRIPOS>ATOM
      1 C          64.1118   89.9075   13.7483 C.ar    1  UNL1        0.1041
      2 N          63.5475   90.6454   12.5707 N.ar    1  UNL1       -0.2443
      3 C          62.8841   89.8881   11.4588 C.ar    1  UNL1        0.0986
      4 C          62.7850   88.3929   11.5245 C.ar    1  UNL1        0.0216
      5 C          63.3494   87.6549   12.7022 C.ar    1  UNL1        0.0325
      6 C          64.0128   88.4123   13.8141 C.ar    1  UNL1        0.1552
      7 F          64.5771   87.6742   14.9918 F       1  UNL1       -0.2029
      8 C          62.1216   87.6356   10.4126 C.ar    1  UNL1        0.0077
      9 C          62.9076   86.6438    9.6073 C.ar    1  UNL1        0.0117
     10 C          62.2442   85.8865    8.4954 C.ar    1  UNL1        0.0599
     11 CL         63.0303   84.8947    7.6901 Cl      1  UNL1       -0.0822
     12 C          60.7947   86.1209    8.1888 C.ar    1  UNL1        0.0411
     13 C          60.0087   87.1127    8.9940 C.ar    1  UNL1        0.1440
     14 F          58.5592   87.3472    8.6874 F       1  UNL1       -0.2040
     15 C          60.6721   87.8700   10.1059 C.ar    1  UNL1        0.0669
     16 C          59.8860   88.8618   10.9112 C.ar    1  UNL1        0.2079
     17 N          59.2176   88.5966   12.2276 N.ar    1  UNL1       -0.1077
     18 N          58.5488   89.8638   12.6715 N.ar    1  UNL1       -0.0450
     19 N          58.8039   90.9121   11.6294 N.ar    1  UNL1       -0.1488
     20 C          58.3178   92.3307   11.6684 C.3     1  UNL1        0.1795
     21 N          59.6303   90.2928   10.5415 N.ar    1  UNL1       -0.1296
     22 C          63.9546   91.2056   15.9933 C.3     1  UNL1        0.0279
     23 C          64.7752   90.6648   14.8602 C.3     1  UNL1        0.1142
     24 N          66.2594   90.8813   14.8391 N.am    1  UNL1       -0.2986
     25 C          66.8364   92.0494   14.0956 C.2     1  UNL1        0.2552
     26 O          65.7911   92.8964   13.4326 O.2     1  UNL1       -0.2723
     27 H          66.8547   90.2568   15.3131 H       1  UNL1        0.1498
     28 C          68.3206   92.2658   14.0745 C.3     1  UNL1        0.2443
     29 C          69.8047   92.4823   14.0534 C.3     1  UNL1        0.0478
     30 O          68.4149   91.4941   12.7918 O.3     1  UNL1       -0.3719
     31 H          67.6298   90.9329   12.6935 H       1  UNL1        0.2111
     32 C          68.2263   93.0376   15.3572 C.3     1  UNL1        0.4274
     33 F          68.1319   93.8093   16.6401 F       1  UNL1       -0.1671
     34 F          67.4397   94.1949   14.8170 F       1  UNL1       -0.1671
     35 F          69.0071   91.9663   16.0591 F       1  UNL1       -0.1671
@<TRIPOS>BOND
     1    23    22    1
     2    23    24    1
     3    24    25   am
     4    25    26    2
     5    25    28    1
     6    28    29    1
     7    28    30    1
     8    28    32    1
     9    32    33    1
    10    32    34    1
    11    32    35    1
    12    23     1    1
    13     1     2   ar
    14     2     3   ar
    15     3     4   ar
    16     4     8    1
    17     8     9   ar
    18     9    10   ar
    19    10    11    1
    20    10    12   ar
    21    12    13   ar
    22    13    14    1
    23    13    15   ar
    24    15    16    1
    25    16    17   ar
    26    17    18   ar
    27    18    19   ar
    28    19    20    1
    29    19    21   ar
    30     4     5   ar
    31     5     6   ar
    32     6     7    1
    33     6     1   ar
    34    15     8   ar
    35    21    16   ar
    36    24    27    1
    37    30    31    1
