@<TRIPOS>MOLECULE
*****
 33 37 0 0 0
SMALL
GASTEIGER

@<TRIPOS>ATOM
      1 C          61.4406   95.1901   -2.9009 C.2     1  UNL1        0.2506
      2 O          61.3673   95.7994   -4.2696 O.2     1  UNL1       -0.2699
      3 N          60.4198   94.1768   -2.4754 N.am    1  UNL1       -0.2740
      4 C          60.4930   93.5675   -1.1067 C.3     1  UNL1        0.1095
      5 C          59.4722   92.5542   -0.6812 C.3     1  UNL1        0.1622
      6 O          58.3781   92.1502   -1.6243 O.3     1  UNL1       -0.3502
      7 C          58.3048   92.7594   -2.9930 C.3     1  UNL1        0.1619
      8 C          59.3256   93.7728   -3.4186 C.3     1  UNL1        0.1053
      9 C          59.2523   94.3821   -4.7873 C.3     1  UNL1        0.0242
     10 C          65.8172   96.8063    0.8718 C.3     1  UNL1        0.0311
     11 C          64.7230   96.4023   -0.0714 C.ar    1  UNL1       -0.0203
     12 C          63.3137   96.8508    0.1786 C.ar    1  UNL1       -0.0040
     13 C          62.2195   96.4468   -0.7646 C.ar    1  UNL1        0.0058
     14 C          62.5347   95.5942   -1.9577 C.ar    1  UNL1        0.0729
     15 C          63.9441   95.1456   -2.2077 C.ar    1  UNL1        0.1069
     16 C          65.0382   95.5497   -1.2646 C.ar    1  UNL1        0.0168
     17 N          64.2593   94.2930   -3.4010 N.ar    1  UNL1       -0.1477
     18 N          64.9610   94.7454   -4.6472 N.ar    1  UNL1       -0.1447
     19 C          65.0636   93.5704   -5.5739 C.ar    1  UNL1        0.1446
     20 C          64.4253   92.3918   -4.9004 C.ar    1  UNL1        0.1446
     21 N          63.9282   92.8384   -3.5575 N.ar    1  UNL1       -0.1447
     22 C          61.5872   93.9716   -0.1635 C.3     1  UNL1        0.0488
     23 C          61.8609   93.1522    1.0627 C.ar    1  UNL1       -0.0189
     24 C          63.2601   92.7081    1.3711 C.ar    1  UNL1       -0.0041
     25 C          63.5338   91.8887    2.5974 C.ar    1  UNL1        0.0013
     26 C          62.4083   91.5134    3.5153 C.ar    1  UNL1        0.0209
     27 C          61.0092   91.9575    3.2069 C.ar    1  UNL1        0.1026
     28 C          60.7354   92.7769    1.9807 C.ar    1  UNL1        0.0167
     29 N          59.8837   91.5823    4.1247 N.ar    1  UNL1       -0.1478
     30 N          59.9598   90.6033    5.2588 N.ar    1  UNL1       -0.1447
     31 C          58.6077   90.5361    5.9046 C.ar    1  UNL1        0.1446
     32 C          57.6959   91.4735    5.1697 C.ar    1  UNL1        0.1446
     33 N          58.4845   92.1200    4.0698 N.ar    1  UNL1       -0.1447
@<TRIPOS>BOND
     1    10    11    1
     2    11    12   ar
     3    12    13   ar
     4    13    14   ar
     5    14     1    1
     6     1     2    2
     7     1     3   am
     8     3     4    1
     9     4    22    1
    10    22    23    1
    11    23    24   ar
    12    24    25   ar
    13    25    26   ar
    14    26    27   ar
    15    27    29    1
    16    29    30   ar
    17    30    31   ar
    18    31    32   ar
    19    32    33   ar
    20    27    28   ar
    21     4     5    1
    22     5     6    1
    23     6     7    1
    24     7     8    1
    25     8     9    1
    26    14    15   ar
    27    15    17    1
    28    17    18   ar
    29    18    19   ar
    30    19    20   ar
    31    20    21   ar
    32    15    16   ar
    33    16    11   ar
    34     8     3    1
    35    21    17   ar
    36    28    23   ar
    37    33    29   ar
@<TRIPOS>MOLECULE
*****
 33 37 0 0 0
SMALL
GASTEIGER

@<TRIPOS>ATOM
      1 C          62.8463   88.9820   11.0254 C.2     1  UNL1        0.2506
      2 O          63.0490   90.4341   10.7089 O.2     1  UNL1       -0.2699
      3 N          63.3400   88.4220   12.3264 N.am    1  UNL1       -0.2740
      4 C          63.1374   86.9698   12.6429 C.3     1  UNL1        0.1095
      5 C          63.6311   86.4098   13.9439 C.3     1  UNL1        0.1622
      6 O          64.3275   87.3019   14.9284 O.3     1  UNL1       -0.3502
      7 C          64.5302   88.7540   14.6119 C.3     1  UNL1        0.1619
      8 C          64.0365   89.3141   13.3108 C.3     1  UNL1        0.1053
      9 C          64.2392   90.7662   12.9943 C.3     1  UNL1        0.0242
     10 C          60.0606   85.4136    7.0876 C.3     1  UNL1        0.0311
     11 C          60.7570   86.3057    8.0721 C.ar    1  UNL1       -0.0203
     12 C          62.2544   86.3017    8.1591 C.ar    1  UNL1       -0.0040
     13 C          62.9509   87.1938    9.1436 C.ar    1  UNL1        0.0058
     14 C          62.1499   88.0899   10.0410 C.ar    1  UNL1        0.0729
     15 C          60.6524   88.0939    9.9539 C.ar    1  UNL1        0.1069
     16 C          59.9560   87.2018    8.9694 C.ar    1  UNL1        0.0168
     17 N          59.8513   88.9901   10.8513 N.ar    1  UNL1       -0.1477
     18 N          59.5504   90.4395   10.6090 N.ar    1  UNL1       -0.1447
     19 C          58.7236   90.9394   11.7564 C.ar    1  UNL1        0.1446
     20 C          58.5137   89.7989   12.7079 C.ar    1  UNL1        0.1446
     21 N          59.2106   88.5942   12.1485 N.ar    1  UNL1       -0.1447
     22 C          62.4409   86.0777   11.6585 C.3     1  UNL1        0.0488
     23 C          62.8944   84.6591   11.4805 C.ar    1  UNL1       -0.0189
     24 C          63.9751   84.3355   10.4919 C.ar    1  UNL1       -0.0041
     25 C          64.4286   82.9168   10.3139 C.ar    1  UNL1        0.0013
     26 C          63.8013   81.8216   11.1246 C.ar    1  UNL1        0.0209
     27 C          62.7206   82.1452   12.1132 C.ar    1  UNL1        0.1026
     28 C          62.2671   83.5638   12.2912 C.ar    1  UNL1        0.0167
     29 N          62.0933   81.0500   12.9238 N.ar    1  UNL1       -0.1478
     30 N          62.5581   79.6254   12.9903 N.ar    1  UNL1       -0.1447
     31 C          61.6431   78.8821   13.9178 C.ar    1  UNL1        0.1446
     32 C          60.6129   79.8474   14.4246 C.ar    1  UNL1        0.1446
     33 N          60.8911   81.1872   13.8103 N.ar    1  UNL1       -0.1447
@<TRIPOS>BOND
     1    10    11    1
     2    11    12   ar
     3    12    13   ar
     4    13    14   ar
     5    14     1    1
     6     1     2    2
     7     1     3   am
     8     3     4    1
     9     4    22    1
    10    22    23    1
    11    23    24   ar
    12    24    25   ar
    13    25    26   ar
    14    26    27   ar
    15    27    29    1
    16    29    30   ar
    17    30    31   ar
    18    31    32   ar
    19    32    33   ar
    20    27    28   ar
    21     4     5    1
    22     5     6    1
    23     6     7    1
    24     7     8    1
    25     8     9    1
    26    14    15   ar
    27    15    17    1
    28    17    18   ar
    29    18    19   ar
    30    19    20   ar
    31    20    21   ar
    32    15    16   ar
    33    16    11   ar
    34     8     3    1
    35    21    17   ar
    36    28    23   ar
    37    33    29   ar
@<TRIPOS>MOLECULE
*****
 33 37 0 0 0
SMALL
GASTEIGER

@<TRIPOS>ATOM
      1 C          64.0836   83.7878   12.3183 C.2     1  UNL1        0.2506
      2 O          64.9144   82.5406   12.3836 O.2     1  UNL1       -0.2699
      3 N          63.5491   84.2647   11.0004 N.am    1  UNL1       -0.2740
      4 C          62.7183   85.5120   10.9351 C.3     1  UNL1        0.1095
      5 C          62.1838   85.9889    9.6173 C.3     1  UNL1        0.1622
      6 O          62.4801   85.2187    8.3647 O.3     1  UNL1       -0.3502
      7 C          63.3108   83.9715    8.4300 C.3     1  UNL1        0.1619
      8 C          63.8454   83.4945    9.7479 C.3     1  UNL1        0.1053
      9 C          64.6762   82.2474    9.8131 C.3     1  UNL1        0.0242
     10 C          62.8984   86.8687   17.3286 C.3     1  UNL1        0.0311
     11 C          63.1947   86.0985   16.0760 C.ar    1  UNL1       -0.0203
     12 C          64.0742   86.6964   15.0183 C.ar    1  UNL1       -0.0040
     13 C          64.3705   85.9262   13.7657 C.ar    1  UNL1        0.0058
     14 C          63.7873   84.5580   13.5709 C.ar    1  UNL1        0.0729
     15 C          62.9078   83.9601   14.6287 C.ar    1  UNL1        0.1069
     16 C          62.6115   84.7303   15.8812 C.ar    1  UNL1        0.0168
     17 N          62.3246   82.5919   14.4339 N.ar    1  UNL1       -0.1477
     18 N          60.8640   82.2587   14.3575 N.ar    1  UNL1       -0.1447
     19 C          60.7362   80.7776   14.1577 C.ar    1  UNL1        0.1446
     20 C          62.1179   80.1954   14.1106 C.ar    1  UNL1        0.1446
     21 N          63.0995   81.3166   14.2813 N.ar    1  UNL1       -0.1447
     22 C          62.4220   86.2822   12.1877 C.3     1  UNL1        0.0488
     23 C          62.0903   87.7429   12.1092 C.ar    1  UNL1       -0.0189
     24 C          60.6624   88.1815   11.9719 C.ar    1  UNL1       -0.0041
     25 C          60.3307   89.6423   11.8934 C.ar    1  UNL1        0.0013
     26 C          61.4269   90.6645   11.9521 C.ar    1  UNL1        0.0209
     27 C          62.8548   90.2259   12.0894 C.ar    1  UNL1        0.1026
     28 C          63.1865   88.7652   12.1679 C.ar    1  UNL1        0.0167
     29 N          63.9509   91.2481   12.1481 N.ar    1  UNL1       -0.1478
     30 N          64.6389   91.7328   13.3898 N.ar    1  UNL1       -0.1447
     31 C          65.6648   92.7493   12.9846 C.ar    1  UNL1        0.1446
     32 C          65.6108   92.8929   11.4924 C.ar    1  UNL1        0.1446
     33 N          64.5516   91.9651   10.9755 N.ar    1  UNL1       -0.1447
@<TRIPOS>BOND
     1    10    11    1
     2    11    12   ar
     3    12    13   ar
     4    13    14   ar
     5    14     1    1
     6     1     2    2
     7     1     3   am
     8     3     4    1
     9     4    22    1
    10    22    23    1
    11    23    24   ar
    12    24    25   ar
    13    25    26   ar
    14    26    27   ar
    15    27    29    1
    16    29    30   ar
    17    30    31   ar
    18    31    32   ar
    19    32    33   ar
    20    27    28   ar
    21     4     5    1
    22     5     6    1
    23     6     7    1
    24     7     8    1
    25     8     9    1
    26    14    15   ar
    27    15    17    1
    28    17    18   ar
    29    18    19   ar
    30    19    20   ar
    31    20    21   ar
    32    15    16   ar
    33    16    11   ar
    34     8     3    1
    35    21    17   ar
    36    28    23   ar
    37    33    29   ar
@<TRIPOS>MOLECULE
*****
 33 37 0 0 0
SMALL
GASTEIGER

@<TRIPOS>ATOM
      1 C          62.9838   89.3523   10.9087 C.2     1  UNL1        0.2506
      2 O          63.0463   90.7379   10.3377 O.2     1  UNL1       -0.2699
      3 N          63.5358   89.0792   12.2764 N.am    1  UNL1       -0.2740
      4 C          63.4733   87.6935   12.8475 C.3     1  UNL1        0.1095
      5 C          64.0253   87.4204   14.2152 C.3     1  UNL1        0.1622
      6 O          64.6398   88.5329   15.0118 O.3     1  UNL1       -0.3502
      7 C          64.7023   89.9185   14.4408 C.3     1  UNL1        0.1619
      8 C          64.1503   90.1917   13.0731 C.3     1  UNL1        0.1053
      9 C          64.2128   91.5773   12.5020 C.3     1  UNL1        0.0242
     10 C          60.5256   84.9023    7.7220 C.3     1  UNL1        0.0311
     11 C          61.1401   86.0148    8.5186 C.ar    1  UNL1       -0.0203
     12 C          62.6272   86.2108    8.5100 C.ar    1  UNL1       -0.0040
     13 C          63.2417   87.3233    9.3066 C.ar    1  UNL1        0.0058
     14 C          62.3692   88.2398   10.1120 C.ar    1  UNL1        0.0729
     15 C          60.8821   88.0438   10.1207 C.ar    1  UNL1        0.1069
     16 C          60.2676   86.9313    9.3240 C.ar    1  UNL1        0.0168
     17 N          60.0095   88.9604   10.9261 N.ar    1  UNL1       -0.1477
     18 N          59.3101   88.6122   12.2066 N.ar    1  UNL1       -0.1447
     19 C          58.5514   89.8225   12.6643 C.ar    1  UNL1        0.1446
     20 C          58.7820   90.9187   11.6666 C.ar    1  UNL1        0.1446
     21 N          59.6831   90.3859   10.5924 N.ar    1  UNL1       -0.1447
     22 C          62.8587   86.5810   12.0508 C.3     1  UNL1        0.0488
     23 C          62.6989   85.2205   12.6618 C.ar    1  UNL1       -0.0189
     24 C          62.4125   85.0857   14.1280 C.ar    1  UNL1       -0.0041
     25 C          62.2527   83.7251   14.7390 C.ar    1  UNL1        0.0013
     26 C          62.3793   82.4993   13.8838 C.ar    1  UNL1        0.0209
     27 C          62.6658   82.6341   12.4176 C.ar    1  UNL1        0.1026
     28 C          62.8256   83.9946   11.8066 C.ar    1  UNL1        0.0167
     29 N          62.7924   81.4083   11.5624 N.ar    1  UNL1       -0.1478
     30 N          62.5697   79.9941   12.0100 N.ar    1  UNL1       -0.1447
     31 C          62.8037   79.0933   10.8336 C.ar    1  UNL1        0.1446
     32 C          63.1709   79.9508    9.6590 C.ar    1  UNL1        0.1446
     33 N          63.1640   81.3816   10.1094 N.ar    1  UNL1       -0.1447
@<TRIPOS>BOND
     1    10    11    1
     2    11    12   ar
     3    12    13   ar
     4    13    14   ar
     5    14     1    1
     6     1     2    2
     7     1     3   am
     8     3     4    1
     9     4    22    1
    10    22    23    1
    11    23    24   ar
    12    24    25   ar
    13    25    26   ar
    14    26    27   ar
    15    27    29    1
    16    29    30   ar
    17    30    31   ar
    18    31    32   ar
    19    32    33   ar
    20    27    28   ar
    21     4     5    1
    22     5     6    1
    23     6     7    1
    24     7     8    1
    25     8     9    1
    26    14    15   ar
    27    15    17    1
    28    17    18   ar
    29    18    19   ar
    30    19    20   ar
    31    20    21   ar
    32    15    16   ar
    33    16    11   ar
    34     8     3    1
    35    21    17   ar
    36    28    23   ar
    37    33    29   ar
@<TRIPOS>MOLECULE
*****
 33 37 0 0 0
SMALL
GASTEIGER

@<TRIPOS>ATOM
      1 C          61.2392   95.7213   -0.6911 C.2     1  UNL1        0.2506
      2 O          61.8785   96.8560    0.0530 O.2     1  UNL1       -0.2699
      3 N          61.3908   94.3157   -0.1899 N.am    1  UNL1       -0.2740
      4 C          60.7515   93.1810   -0.9340 C.3     1  UNL1        0.1095
      5 C          60.9031   91.7754   -0.4328 C.3     1  UNL1        0.1622
      6 O          61.6940   91.5045    0.8126 O.3     1  UNL1       -0.3502
      7 C          62.3333   92.6391    1.5568 C.3     1  UNL1        0.1619
      8 C          62.1817   94.0448    1.0555 C.3     1  UNL1        0.1053
      9 C          62.8210   95.1794    1.7997 C.3     1  UNL1        0.0242
     10 C          58.0755   96.8050   -5.6728 C.3     1  UNL1        0.0311
     11 C          58.8665   96.5341   -4.4274 C.ar    1  UNL1       -0.0203
     12 C          58.2007   96.6075   -3.0853 C.ar    1  UNL1       -0.0040
     13 C          58.9916   96.3366   -1.8399 C.ar    1  UNL1        0.0058
     14 C          60.4483   95.9922   -1.9366 C.ar    1  UNL1        0.0729
     15 C          61.1141   95.9188   -3.2787 C.ar    1  UNL1        0.1069
     16 C          60.3232   96.1897   -4.5241 C.ar    1  UNL1        0.0168
     17 N          62.5708   95.5744   -3.3754 N.ar    1  UNL1       -0.1477
     18 N          63.1380   94.2224   -3.6921 N.ar    1  UNL1       -0.1447
     19 C          64.6339   94.3339   -3.6849 C.ar    1  UNL1        0.1446
     20 C          64.9911   95.7550   -3.3637 C.ar    1  UNL1        0.1446
     21 N          63.7161   96.5216   -3.1725 N.ar    1  UNL1       -0.1447
     22 C          59.9606   93.4519   -2.1795 C.3     1  UNL1        0.0488
     23 C          58.5775   92.8902   -2.3267 C.ar    1  UNL1       -0.0189
     24 C          57.6842   92.7726   -1.1274 C.ar    1  UNL1       -0.0041
     25 C          56.3012   92.2108   -1.2747 C.ar    1  UNL1        0.0013
     26 C          55.8115   91.7668   -2.6211 C.ar    1  UNL1        0.0209
     27 C          56.7048   91.8845   -3.8204 C.ar    1  UNL1        0.1026
     28 C          58.0878   92.4462   -3.6732 C.ar    1  UNL1        0.0167
     29 N          56.2150   91.4404   -5.1668 N.ar    1  UNL1       -0.1478
     30 N          56.8963   91.6911   -6.4795 N.ar    1  UNL1       -0.1447
     31 C          56.0604   91.0733   -7.5610 C.ar    1  UNL1        0.1446
     32 C          54.8625   90.4409   -6.9167 C.ar    1  UNL1        0.1446
     33 N          54.9581   90.6678   -5.4370 N.ar    1  UNL1       -0.1447
@<TRIPOS>BOND
     1    10    11    1
     2    11    12   ar
     3    12    13   ar
     4    13    14   ar
     5    14     1    1
     6     1     2    2
     7     1     3   am
     8     3     4    1
     9     4    22    1
    10    22    23    1
    11    23    24   ar
    12    24    25   ar
    13    25    26   ar
    14    26    27   ar
    15    27    29    1
    16    29    30   ar
    17    30    31   ar
    18    31    32   ar
    19    32    33   ar
    20    27    28   ar
    21     4     5    1
    22     5     6    1
    23     6     7    1
    24     7     8    1
    25     8     9    1
    26    14    15   ar
    27    15    17    1
    28    17    18   ar
    29    18    19   ar
    30    19    20   ar
    31    20    21   ar
    32    15    16   ar
    33    16    11   ar
    34     8     3    1
    35    21    17   ar
    36    28    23   ar
    37    33    29   ar
@<TRIPOS>MOLECULE
*****
 33 37 0 0 0
SMALL
GASTEIGER

@<TRIPOS>ATOM
      1 C          61.0242   89.6461    9.7296 C.2     1  UNL1        0.2506
      2 O          60.1254   90.6116    9.0156 O.2     1  UNL1       -0.2699
      3 N          60.9748   88.1854    9.3923 N.am    1  UNL1       -0.2740
      4 C          61.8737   87.2199   10.1063 C.3     1  UNL1        0.1095
      5 C          61.8243   85.7592    9.7690 C.3     1  UNL1        0.1622
      6 O          60.8760   85.2639    8.7176 O.3     1  UNL1       -0.3502
      7 C          59.9771   86.2294    8.0036 C.3     1  UNL1        0.1619
      8 C          60.0265   87.6902    8.3409 C.3     1  UNL1        0.1053
      9 C          59.1276   88.6556    7.6268 C.3     1  UNL1        0.0242
     10 C          64.8174   91.6272   13.9352 C.3     1  UNL1        0.0311
     11 C          63.8691   91.1320   12.8838 C.ar    1  UNL1       -0.0203
     12 C          64.2744   91.1501   11.4397 C.ar    1  UNL1       -0.0040
     13 C          63.3261   90.6548   10.3883 C.ar    1  UNL1        0.0058
     14 C          61.9725   90.1414   10.7810 C.ar    1  UNL1        0.0729
     15 C          61.5673   90.1233   12.2251 C.ar    1  UNL1        0.1069
     16 C          62.5156   90.6186   13.2765 C.ar    1  UNL1        0.0168
     17 N          60.2137   89.6099   12.6178 N.ar    1  UNL1       -0.1477
     18 N          58.9869   89.6079   11.7546 N.ar    1  UNL1       -0.1447
     19 C          57.8642   89.0052   12.5460 C.ar    1  UNL1        0.1446
     20 C          58.3972   88.6345   13.8983 C.ar    1  UNL1        0.1446
     21 N          59.8492   89.0083   13.9427 N.ar    1  UNL1       -0.1447
     22 C          62.8220   87.7152   11.1577 C.3     1  UNL1        0.0488
     23 C          63.1844   86.8338   12.3161 C.ar    1  UNL1       -0.0189
     24 C          63.9057   87.4086   13.4990 C.ar    1  UNL1       -0.0041
     25 C          64.2681   86.5272   14.6574 C.ar    1  UNL1        0.0013
     26 C          63.9091   85.0710   14.6329 C.ar    1  UNL1        0.0209
     27 C          63.1878   84.4962   13.4499 C.ar    1  UNL1        0.1026
     28 C          62.8254   85.3775   12.2916 C.ar    1  UNL1        0.0167
     29 N          62.8288   83.0400   13.4254 N.ar    1  UNL1       -0.1478
     30 N          63.2718   82.0399   12.3989 N.ar    1  UNL1       -0.1447
     31 C          62.6807   80.7100   12.7621 C.ar    1  UNL1        0.1446
     32 C          61.8723   80.8882   14.0131 C.ar    1  UNL1        0.1446
     33 N          61.9639   82.3282   14.4229 N.ar    1  UNL1       -0.1447
@<TRIPOS>BOND
     1    10    11    1
     2    11    12   ar
     3    12    13   ar
     4    13    14   ar
     5    14     1    1
     6     1     2    2
     7     1     3   am
     8     3     4    1
     9     4    22    1
    10    22    23    1
    11    23    24   ar
    12    24    25   ar
    13    25    26   ar
    14    26    27   ar
    15    27    29    1
    16    29    30   ar
    17    30    31   ar
    18    31    32   ar
    19    32    33   ar
    20    27    28   ar
    21     4     5    1
    22     5     6    1
    23     6     7    1
    24     7     8    1
    25     8     9    1
    26    14    15   ar
    27    15    17    1
    28    17    18   ar
    29    18    19   ar
    30    19    20   ar
    31    20    21   ar
    32    15    16   ar
    33    16    11   ar
    34     8     3    1
    35    21    17   ar
    36    28    23   ar
    37    33    29   ar
@<TRIPOS>MOLECULE
*****
 33 37 0 0 0
SMALL
GASTEIGER

@<TRIPOS>ATOM
      1 C          63.1967   89.6629   15.3173 C.2     1  UNL1        0.2506
      2 O          62.9689   90.6132   16.4553 O.2     1  UNL1       -0.2699
      3 N          63.3998   88.2019   15.5895 N.am    1  UNL1       -0.2740
      4 C          63.6277   87.2516   14.4515 C.3     1  UNL1        0.1095
      5 C          63.8308   85.7905   14.7236 C.3     1  UNL1        0.1622
      6 O          63.8061   85.2798   16.1337 O.3     1  UNL1       -0.3502
      7 C          63.5782   86.2300   17.2717 C.3     1  UNL1        0.1619
      8 C          63.3751   87.6911   16.9996 C.3     1  UNL1        0.1053
      9 C          63.1473   88.6414   18.1376 C.3     1  UNL1        0.0242
     10 C          63.2956   91.7060    9.6768 C.3     1  UNL1        0.0311
     11 C          63.2708   91.1952   11.0869 C.ar    1  UNL1       -0.0203
     12 C          62.1460   90.3157   11.5464 C.ar    1  UNL1       -0.0040
     13 C          62.1213   89.8049   12.9565 C.ar    1  UNL1        0.0058
     14 C          63.2214   90.1737   13.9072 C.ar    1  UNL1        0.0729
     15 C          64.3462   91.0532   13.4477 C.ar    1  UNL1        0.1069
     16 C          64.3709   91.5640   12.0375 C.ar    1  UNL1        0.0168
     17 N          65.4464   91.4221   14.3983 N.ar    1  UNL1       -0.1477
     18 N          65.3377   92.3885   15.5404 N.ar    1  UNL1       -0.1447
     19 C          66.6724   92.4530   16.2217 C.ar    1  UNL1        0.1446
     20 C          67.6061   91.5263   15.5008 C.ar    1  UNL1        0.1446
     21 N          66.8483   90.8892   14.3739 N.ar    1  UNL1       -0.1447
     22 C          63.6524   87.7623   13.0413 C.3     1  UNL1        0.0488
     23 C          63.0130   86.9649   11.9435 C.ar    1  UNL1       -0.0189
     24 C          63.2632   85.4892   11.8449 C.ar    1  UNL1       -0.0041
     25 C          62.6237   84.6918   10.7470 C.ar    1  UNL1        0.0013
     26 C          61.7341   85.3701    9.7477 C.ar    1  UNL1        0.0209
     27 C          61.4840   86.8458    9.8463 C.ar    1  UNL1        0.1026
     28 C          62.1234   87.6432   10.9442 C.ar    1  UNL1        0.0167
     29 N          60.5944   87.5241    8.8471 N.ar    1  UNL1       -0.1478
     30 N          60.4858   89.0035    8.6245 N.ar    1  UNL1       -0.1447
     31 C          59.4815   89.2359    7.5348 C.ar    1  UNL1        0.1446
     32 C          58.9694   87.9000    7.0839 C.ar    1  UNL1        0.1446
     33 N          59.6573   86.8421    7.8950 N.ar    1  UNL1       -0.1447
@<TRIPOS>BOND
     1    10    11    1
     2    11    12   ar
     3    12    13   ar
     4    13    14   ar
     5    14     1    1
     6     1     2    2
     7     1     3   am
     8     3     4    1
     9     4    22    1
    10    22    23    1
    11    23    24   ar
    12    24    25   ar
    13    25    26   ar
    14    26    27   ar
    15    27    29    1
    16    29    30   ar
    17    30    31   ar
    18    31    32   ar
    19    32    33   ar
    20    27    28   ar
    21     4     5    1
    22     5     6    1
    23     6     7    1
    24     7     8    1
    25     8     9    1
    26    14    15   ar
    27    15    17    1
    28    17    18   ar
    29    18    19   ar
    30    19    20   ar
    31    20    21   ar
    32    15    16   ar
    33    16    11   ar
    34     8     3    1
    35    21    17   ar
    36    28    23   ar
    37    33    29   ar
@<TRIPOS>MOLECULE
*****
 33 37 0 0 0
SMALL
GASTEIGER

@<TRIPOS>ATOM
      1 C          62.0236   85.4628   11.5412 C.2     1  UNL1        0.2506
      2 O          61.5144   84.2157   10.8813 O.2     1  UNL1       -0.2699
      3 N          63.1045   85.3752   12.5775 N.am    1  UNL1       -0.2740
      4 C          63.6137   86.6223   13.2374 C.3     1  UNL1        0.1095
      5 C          64.6946   86.5347   14.2737 C.3     1  UNL1        0.1622
      6 O          65.2663   85.2000   14.6502 O.3     1  UNL1       -0.3502
      7 C          64.7571   83.9529   13.9904 C.3     1  UNL1        0.1619
      8 C          63.6762   84.0405   12.9540 C.3     1  UNL1        0.1053
      9 C          63.1670   82.7934   12.2941 C.3     1  UNL1        0.0242
     10 C          59.7369   90.8016   10.0352 C.3     1  UNL1        0.0311
     11 C          60.3086   89.4669   10.4117 C.ar    1  UNL1       -0.0203
     12 C          60.4113   89.0754   11.8560 C.ar    1  UNL1       -0.0040
     13 C          60.9830   87.7407   12.2325 C.ar    1  UNL1        0.0058
     14 C          61.4519   86.7975   11.1647 C.ar    1  UNL1        0.0729
     15 C          61.3493   87.1889    9.7203 C.ar    1  UNL1        0.1069
     16 C          60.7776   88.5237    9.3438 C.ar    1  UNL1        0.0168
     17 N          61.8183   86.2457    8.6524 N.ar    1  UNL1       -0.1477
     18 N          60.9828   85.6912    7.5368 N.ar    1  UNL1       -0.1447
     19 C          61.8532   84.7942    6.7075 C.ar    1  UNL1        0.1446
     20 C          63.2266   84.7943    7.3106 C.ar    1  UNL1        0.1446
     21 N          63.2050   85.6914    8.5125 N.ar    1  UNL1       -0.1447
     22 C          63.0421   87.9570   12.8609 C.3     1  UNL1        0.0488
     23 C          63.6282   89.2128   13.4347 C.ar    1  UNL1       -0.0189
     24 C          63.6503   89.4194   14.9203 C.ar    1  UNL1       -0.0041
     25 C          64.2365   90.6753   15.4942 C.ar    1  UNL1        0.0013
     26 C          64.8004   91.7245   14.5825 C.ar    1  UNL1        0.0209
     27 C          64.7782   91.5179   13.0970 C.ar    1  UNL1        0.1026
     28 C          64.1921   90.2621   12.5231 C.ar    1  UNL1        0.0167
     29 N          65.3421   92.5671   12.1853 N.ar    1  UNL1       -0.1478
     30 N          66.0204   93.8348   12.6131 N.ar    1  UNL1       -0.1447
     31 C          66.4243   94.5840   11.3780 C.ar    1  UNL1        0.1446
     32 C          65.9955   93.7794   10.1868 C.ar    1  UNL1        0.1446
     33 N          65.3267   92.5329   10.6858 N.ar    1  UNL1       -0.1447
@<TRIPOS>BOND
     1    10    11    1
     2    11    12   ar
     3    12    13   ar
     4    13    14   ar
     5    14     1    1
     6     1     2    2
     7     1     3   am
     8     3     4    1
     9     4    22    1
    10    22    23    1
    11    23    24   ar
    12    24    25   ar
    13    25    26   ar
    14    26    27   ar
    15    27    29    1
    16    29    30   ar
    17    30    31   ar
    18    31    32   ar
    19    32    33   ar
    20    27    28   ar
    21     4     5    1
    22     5     6    1
    23     6     7    1
    24     7     8    1
    25     8     9    1
    26    14    15   ar
    27    15    17    1
    28    17    18   ar
    29    18    19   ar
    30    19    20   ar
    31    20    21   ar
    32    15    16   ar
    33    16    11   ar
    34     8     3    1
    35    21    17   ar
    36    28    23   ar
    37    33    29   ar
@<TRIPOS>MOLECULE
*****
 33 37 0 0 0
SMALL
GASTEIGER

@<TRIPOS>ATOM
      1 C          62.0870   85.7532   11.6908 C.2     1  UNL1        0.2506
      2 O          61.7328   84.3968   11.1571 O.2     1  UNL1       -0.2699
      3 N          63.1380   85.8904   12.7521 N.am    1  UNL1       -0.2740
      4 C          63.4923   87.2468   13.2859 C.3     1  UNL1        0.1095
      5 C          64.5433   87.3840   14.3472 C.3     1  UNL1        0.1622
      6 O          65.2401   86.1649   14.8749 O.3     1  UNL1       -0.3502
      7 C          64.8859   84.8086   14.3411 C.3     1  UNL1        0.1619
      8 C          63.8348   84.6713   13.2797 C.3     1  UNL1        0.1053
      9 C          63.4806   83.3150   12.7460 C.3     1  UNL1        0.0242
     10 C          59.2999   90.6294    9.5803 C.3     1  UNL1        0.0311
     11 C          59.9967   89.4103   10.1080 C.ar    1  UNL1       -0.0203
     12 C          60.0757   89.1727   11.5869 C.ar    1  UNL1       -0.0040
     13 C          60.7724   87.9537   12.1145 C.ar    1  UNL1        0.0058
     14 C          61.3902   86.9722   11.1632 C.ar    1  UNL1        0.0729
     15 C          61.3113   87.2098    9.6843 C.ar    1  UNL1        0.1069
     16 C          60.6145   88.4289    9.1567 C.ar    1  UNL1        0.0168
     17 N          61.9291   86.2284    8.7329 N.ar    1  UNL1       -0.1477
     18 N          63.3233   85.6809    8.8129 N.ar    1  UNL1       -0.1447
     19 C          63.5171   84.7363    7.6640 C.ar    1  UNL1        0.1446
     20 C          62.2426   84.6999    6.8738 C.ar    1  UNL1        0.1446
     21 N          61.2612   85.6221    7.5344 N.ar    1  UNL1       -0.1447
     22 C          62.7955   88.4658   12.7583 C.3     1  UNL1        0.0488
     23 C          63.5811   89.7081   12.4589 C.ar    1  UNL1       -0.0189
     24 C          63.3738   90.4321   11.1617 C.ar    1  UNL1       -0.0041
     25 C          64.1594   91.6744   10.8623 C.ar    1  UNL1        0.0013
     26 C          65.1522   92.1926   11.8601 C.ar    1  UNL1        0.0209
     27 C          65.3596   91.4686   13.1573 C.ar    1  UNL1        0.1026
     28 C          64.5740   90.2263   13.4567 C.ar    1  UNL1        0.0167
     29 N          66.3524   91.9868   14.1551 N.ar    1  UNL1       -0.1478
     30 N          67.8189   92.1913   13.9151 N.ar    1  UNL1       -0.1447
     31 C          68.4260   92.7223   15.1797 C.ar    1  UNL1        0.1446
     32 C          67.3347   92.8460   16.2014 C.ar    1  UNL1        0.1446
     33 N          66.0532   92.3914   15.5681 N.ar    1  UNL1       -0.1447
@<TRIPOS>BOND
     1    10    11    1
     2    11    12   ar
     3    12    13   ar
     4    13    14   ar
     5    14     1    1
     6     1     2    2
     7     1     3   am
     8     3     4    1
     9     4    22    1
    10    22    23    1
    11    23    24   ar
    12    24    25   ar
    13    25    26   ar
    14    26    27   ar
    15    27    29    1
    16    29    30   ar
    17    30    31   ar
    18    31    32   ar
    19    32    33   ar
    20    27    28   ar
    21     4     5    1
    22     5     6    1
    23     6     7    1
    24     7     8    1
    25     8     9    1
    26    14    15   ar
    27    15    17    1
    28    17    18   ar
    29    18    19   ar
    30    19    20   ar
    31    20    21   ar
    32    15    16   ar
    33    16    11   ar
    34     8     3    1
    35    21    17   ar
    36    28    23   ar
    37    33    29   ar
