@<TRIPOS>MOLECULE
*****
 25 27 0 0 0
SMALL
GASTEIGER

@<TRIPOS>ATOM
      1 N          62.4873   84.7630   15.7905 N.am    1  UNL1       -0.3004
      2 C          63.3020   83.8418   14.9316 C.2     1  UNL1        0.2252
      3 O          64.7991   83.9327   14.9444 O.2     1  UNL1       -0.2750
      4 H          61.5046   84.7034   15.7821 H       1  UNL1        0.1497
      5 C          63.1698   85.7752   16.6621 C.3     1  UNL1        0.1163
      6 C          64.0484   89.8904   15.0674 C.ar    1  UNL1        0.0252
      7 C          63.3004   89.7299   16.3576 C.ar    1  UNL1        0.0059
      8 C          63.0075   88.3582   16.8892 C.ar    1  UNL1       -0.0021
      9 C          63.4627   87.1469   16.1305 C.ar    1  UNL1       -0.0025
     10 C          64.2107   87.3073   14.8403 C.ar    1  UNL1       -0.0021
     11 C          64.5036   88.6791   14.3088 C.ar    1  UNL1        0.0059
     12 C          64.4506   91.4858   13.0567 C.3     1  UNL1        0.0742
     13 S          64.3413   91.2622   14.5359 S.3     1  UNL1       -0.1127
     14 C          62.6195   82.8296   14.0599 C.3     1  UNL1        0.1154
     15 C          63.1851   82.4987   12.7107 C.3     1  UNL1        0.1377
     16 C          63.5893   81.2132   13.3696 C.3     1  UNL1        0.0335
     17 C          62.6627   83.8533   12.3339 C.3     1  UNL1        0.0613
     18 C          62.9900   84.0910   10.8893 C.3     1  UNL1        0.1290
     19 C          63.3840   84.1865    9.4452 C.3     1  UNL1        0.0305
     20 C          63.0459   85.4160    8.6553 C.3     1  UNL1        0.0025
     21 C          62.3139   86.5501    9.3096 C.3     1  UNL1        0.0002
     22 C          61.9199   86.4546   10.7537 C.3     1  UNL1        0.0025
     23 C          62.2579   85.2250   11.5436 C.3     1  UNL1        0.0305
     24 O          63.7146   82.8832   10.3735 O.3     1  UNL1       -0.2256
     25 O          63.8353   81.8990   11.4992 O.3     1  UNL1       -0.2251
@<TRIPOS>BOND
     1    12    13    1
     2    13     6    1
     3     6     7   ar
     4     7     8   ar
     5     8     9   ar
     6     9     5    1
     7     5     1    1
     8     1     2   am
     9     2     3    2
    10     2    14    1
    11    14    15    1
    12    15    16    1
    13    15    17    1
    14    17    18    1
    15    18    19    1
    16    19    20    1
    17    20    21    1
    18    21    22    1
    19    22    23    1
    20    18    24    1
    21    24    25    1
    22     9    10   ar
    23    10    11   ar
    24    11     6   ar
    25    25    15    1
    26    23    18    1
    27     1     4    1
@<TRIPOS>MOLECULE
*****
 25 27 0 0 0
SMALL
GASTEIGER

@<TRIPOS>ATOM
      1 N          64.0434   88.9040   14.9993 N.am    1  UNL1       -0.3004
      2 C          64.0038   87.6194   14.2258 C.2     1  UNL1        0.2252
      3 O          63.3962   87.5879   12.8548 O.2     1  UNL1       -0.2750
      4 H          64.4422   88.9247   15.8991 H       1  UNL1        0.1497
      5 C          63.4753   90.1571   14.4017 C.3     1  UNL1        0.1163
      6 C          65.8885   92.5300   11.4360 C.ar    1  UNL1        0.0252
      7 C          66.3876   92.3544   12.8395 C.ar    1  UNL1        0.0059
      8 C          65.5832   91.5634   13.8281 C.ar    1  UNL1       -0.0021
      9 C          64.2797   90.9480   13.4131 C.ar    1  UNL1       -0.0025
     10 C          63.7806   91.1237   12.0095 C.ar    1  UNL1       -0.0021
     11 C          64.5851   91.9147   11.0210 C.ar    1  UNL1        0.0059
     12 C          67.8395   92.6763    9.7265 C.3     1  UNL1        0.0742
     13 S          66.6930   93.3210   10.4474 S.3     1  UNL1       -0.1127
     14 C          64.5719   86.3663   14.8234 C.3     1  UNL1        0.1154
     15 C          63.6617   85.2342   15.1971 C.3     1  UNL1        0.1377
     16 C          63.5108   85.9882   16.4850 C.3     1  UNL1        0.0335
     17 C          64.0028   84.7168   13.8311 C.3     1  UNL1        0.0613
     18 C          63.2719   83.4225   13.6297 C.3     1  UNL1        0.1290
     19 C          62.4826   82.1482   13.5727 C.3     1  UNL1        0.0305
     20 C          62.5353   81.2876   12.3453 C.3     1  UNL1        0.0025
     21 C          63.3773   81.7013   11.1749 C.3     1  UNL1        0.0002
     22 C          64.1665   82.9756   11.2318 C.3     1  UNL1        0.0025
     23 C          64.1138   83.8361   12.4592 C.3     1  UNL1        0.0305
     24 O          62.4790   83.1399   14.8712 O.3     1  UNL1       -0.2256
     25 O          62.7199   84.2596   15.8400 O.3     1  UNL1       -0.2251
@<TRIPOS>BOND
     1    12    13    1
     2    13     6    1
     3     6     7   ar
     4     7     8   ar
     5     8     9   ar
     6     9     5    1
     7     5     1    1
     8     1     2   am
     9     2     3    2
    10     2    14    1
    11    14    15    1
    12    15    16    1
    13    15    17    1
    14    17    18    1
    15    18    19    1
    16    19    20    1
    17    20    21    1
    18    21    22    1
    19    22    23    1
    20    18    24    1
    21    24    25    1
    22     9    10   ar
    23    10    11   ar
    24    11     6   ar
    25    25    15    1
    26    23    18    1
    27     1     4    1
@<TRIPOS>MOLECULE
*****
 25 27 0 0 0
SMALL
GASTEIGER

@<TRIPOS>ATOM
      1 N          63.4894   87.4646   12.9707 N.am    1  UNL1       -0.3004
      2 C          64.2045   87.5596   14.2860 C.2     1  UNL1        0.2252
      3 O          64.4968   88.9031   14.8854 O.2     1  UNL1       -0.2750
      4 H          63.2976   86.5828   12.5773 H       1  UNL1        0.1497
      5 C          63.0668   88.7132   12.2551 C.3     1  UNL1        0.1163
      6 C          60.2745   88.4537    8.7358 C.ar    1  UNL1        0.0252
      7 C          60.3781   89.7291    9.5185 C.ar    1  UNL1        0.0059
      8 C          61.3088   89.8156   10.6916 C.ar    1  UNL1       -0.0021
      9 C          62.1360   88.6267   11.0820 C.ar    1  UNL1       -0.0025
     10 C          62.0324   87.3514   10.2993 C.ar    1  UNL1       -0.0021
     11 C          61.1016   87.2649    9.1261 C.ar    1  UNL1        0.0059
     12 C          59.2928   89.4834    6.5618 C.3     1  UNL1        0.0742
     13 S          59.3436   88.3673    7.5626 S.3     1  UNL1       -0.1127
     14 C          64.6272   86.3109   15.0017 C.3     1  UNL1        0.1154
     15 C          63.6156   85.2501   15.3202 C.3     1  UNL1        0.1377
     16 C          63.4242   86.0340   16.5847 C.3     1  UNL1        0.0335
     17 C          64.0186   84.6880   13.9892 C.3     1  UNL1        0.0613
     18 C          63.2160   83.4436   13.7493 C.3     1  UNL1        0.1290
     19 C          62.3463   82.2257   13.6490 C.3     1  UNL1        0.0305
     20 C          62.4283   81.3432   12.4388 C.3     1  UNL1        0.0025
     21 C          63.3800   81.6788   11.3290 C.3     1  UNL1        0.0002
     22 C          64.2497   82.8967   11.4293 C.3     1  UNL1        0.0025
     23 C          64.1677   83.7792   12.6395 C.3     1  UNL1        0.0305
     24 O          62.3170   83.2367   14.9321 O.3     1  UNL1       -0.2256
     25 O          62.5640   84.3532   15.9031 O.3     1  UNL1       -0.2251
@<TRIPOS>BOND
     1    12    13    1
     2    13     6    1
     3     6     7   ar
     4     7     8   ar
     5     8     9   ar
     6     9     5    1
     7     5     1    1
     8     1     2   am
     9     2     3    2
    10     2    14    1
    11    14    15    1
    12    15    16    1
    13    15    17    1
    14    17    18    1
    15    18    19    1
    16    19    20    1
    17    20    21    1
    18    21    22    1
    19    22    23    1
    20    18    24    1
    21    24    25    1
    22     9    10   ar
    23    10    11   ar
    24    11     6   ar
    25    25    15    1
    26    23    18    1
    27     1     4    1
@<TRIPOS>MOLECULE
*****
 25 27 0 0 0
SMALL
GASTEIGER

@<TRIPOS>ATOM
      1 N          62.3340   89.4147   11.2445 N.am    1  UNL1       -0.3004
      2 C          60.8770   89.0692   11.1547 C.2     1  UNL1        0.2252
      3 O          59.8400   90.1350   11.3505 O.2     1  UNL1       -0.2750
      4 H          63.0146   88.7151   11.1160 H       1  UNL1        0.1497
      5 C          62.7538   90.8261   11.5302 C.3     1  UNL1        0.1163
      6 C          66.3000   91.6258   14.1824 C.ar    1  UNL1        0.0252
      7 C          66.1485   92.3691   12.8884 C.ar    1  UNL1        0.0059
      8 C          64.9665   92.1025   12.0043 C.ar    1  UNL1       -0.0021
      9 C          63.9358   91.0927   12.4142 C.ar    1  UNL1       -0.0025
     10 C          64.0873   90.3494   13.7083 C.ar    1  UNL1       -0.0021
     11 C          65.2695   90.6160   14.5924 C.ar    1  UNL1        0.0059
     12 C          67.7009   93.2640   15.6328 C.3     1  UNL1        0.0742
     13 S          67.4822   91.8924   15.0665 S.3     1  UNL1       -0.1127
     14 C          60.4572   87.6576   10.8690 C.3     1  UNL1        0.1154
     15 C          61.1418   86.8760    9.7873 C.3     1  UNL1        0.1377
     16 C          60.3915   87.7927    8.8672 C.3     1  UNL1        0.0335
     17 C          61.7491   86.1227   10.9335 C.3     1  UNL1        0.0613
     18 C          62.6523   85.0670   10.3679 C.3     1  UNL1        0.1290
     19 C          63.5144   84.0641    9.6602 C.3     1  UNL1        0.0305
     20 C          64.3243   83.0803   10.4514 C.3     1  UNL1        0.0025
     21 C          64.2722   83.0995   11.9504 C.3     1  UNL1        0.0002
     22 C          63.4101   84.1024   12.6581 C.3     1  UNL1        0.0025
     23 C          62.6002   85.0861   11.8669 C.3     1  UNL1        0.0305
     24 O          62.6032   85.1678    8.8721 O.3     1  UNL1       -0.2256
     25 O          61.6697   86.2859    8.5132 O.3     1  UNL1       -0.2251
@<TRIPOS>BOND
     1    12    13    1
     2    13     6    1
     3     6     7   ar
     4     7     8   ar
     5     8     9   ar
     6     9     5    1
     7     5     1    1
     8     1     2   am
     9     2     3    2
    10     2    14    1
    11    14    15    1
    12    15    16    1
    13    15    17    1
    14    17    18    1
    15    18    19    1
    16    19    20    1
    17    20    21    1
    18    21    22    1
    19    22    23    1
    20    18    24    1
    21    24    25    1
    22     9    10   ar
    23    10    11   ar
    24    11     6   ar
    25    25    15    1
    26    23    18    1
    27     1     4    1
@<TRIPOS>MOLECULE
*****
 25 27 0 0 0
SMALL
GASTEIGER

@<TRIPOS>ATOM
      1 N          62.8533   83.8336   11.3261 N.am    1  UNL1       -0.3004
      2 C          64.0356   82.9121   11.3833 C.2     1  UNL1        0.2252
      3 O          64.8948   82.7182   10.1693 O.2     1  UNL1       -0.2750
      4 H          62.2893   83.9608   12.1230 H       1  UNL1        0.1497
      5 C          62.5303   84.5611   10.0548 C.3     1  UNL1        0.1163
      6 C          60.7669   88.6980   10.2155 C.ar    1  UNL1        0.0252
      7 C          61.7924   88.2800   11.2272 C.ar    1  UNL1        0.0059
      8 C          62.3802   86.9011   11.1737 C.ar    1  UNL1       -0.0021
      9 C          61.9425   85.9400   10.1083 C.ar    1  UNL1       -0.0025
     10 C          60.9171   86.3580    9.0966 C.ar    1  UNL1       -0.0021
     11 C          60.3293   87.7371    9.1502 C.ar    1  UNL1        0.0059
     12 C          59.4432   90.5315   11.4946 C.3     1  UNL1        0.0742
     13 S          60.1791   90.0771   10.2691 S.3     1  UNL1       -0.1127
     14 C          64.3586   82.1845   12.6548 C.3     1  UNL1        0.1154
     15 C          63.4382   82.2910   13.8343 C.3     1  UNL1        0.1377
     16 C          63.0837   80.8757   13.4861 C.3     1  UNL1        0.0335
     17 C          63.9851   83.6840   13.9359 C.3     1  UNL1        0.0613
     18 C          63.3285   84.3557   15.1055 C.3     1  UNL1        0.1290
     19 C          62.5931   84.8932   16.2972 C.3     1  UNL1        0.0305
     20 C          62.8450   86.2964   16.7636 C.3     1  UNL1        0.0025
     21 C          63.8322   87.1620   16.0383 C.3     1  UNL1        0.0002
     22 C          64.5676   86.6245   14.8466 C.3     1  UNL1        0.0025
     23 C          64.3157   85.2213   14.3802 C.3     1  UNL1        0.0305
     24 O          62.3758   83.3777   15.7267 O.3     1  UNL1       -0.2256
     25 O          62.4435   82.1016   14.9411 O.3     1  UNL1       -0.2251
@<TRIPOS>BOND
     1    12    13    1
     2    13     6    1
     3     6     7   ar
     4     7     8   ar
     5     8     9   ar
     6     9     5    1
     7     5     1    1
     8     1     2   am
     9     2     3    2
    10     2    14    1
    11    14    15    1
    12    15    16    1
    13    15    17    1
    14    17    18    1
    15    18    19    1
    16    19    20    1
    17    20    21    1
    18    21    22    1
    19    22    23    1
    20    18    24    1
    21    24    25    1
    22     9    10   ar
    23    10    11   ar
    24    11     6   ar
    25    25    15    1
    26    23    18    1
    27     1     4    1
@<TRIPOS>MOLECULE
*****
 25 27 0 0 0
SMALL
GASTEIGER

@<TRIPOS>ATOM
      1 N          62.6665   90.3946   12.6697 N.am    1  UNL1       -0.3004
      2 C          64.0524   90.9402   12.8480 C.2     1  UNL1        0.2252
      3 O          64.6775   91.7684   11.7648 O.2     1  UNL1       -0.2750
      4 H          62.2562   89.8511   13.3807 H       1  UNL1        0.1497
      5 C          61.9058   90.6773   11.4082 C.3     1  UNL1        0.1163
      6 C          60.6988   87.2906    8.7021 C.ar    1  UNL1        0.0252
      7 C          61.8281   87.1092    9.6725 C.ar    1  UNL1        0.0059
      8 C          62.2304   88.2381   10.5745 C.ar    1  UNL1       -0.0021
      9 C          61.5035   89.5484   10.5062 C.ar    1  UNL1       -0.0025
     10 C          60.3742   89.7298    9.5357 C.ar    1  UNL1       -0.0021
     11 C          59.9719   88.6008    8.6336 C.ar    1  UNL1        0.0059
     12 C          61.3424   85.2585    7.2166 C.3     1  UNL1        0.0742
     13 S          60.2965   86.1616    7.8000 S.3     1  UNL1       -0.1127
     14 C          64.8132   90.6576   14.1096 C.3     1  UNL1        0.1154
     15 C          64.0789   90.2531   15.3534 C.3     1  UNL1        0.1377
     16 C          64.0103   91.7304   15.6043 C.3     1  UNL1        0.0335
     17 C          64.3010   88.8604   14.8424 C.3     1  UNL1        0.0613
     18 C          63.6897   87.9039   15.8230 C.3     1  UNL1        0.1290
     19 C          63.0365   87.0733   16.8876 C.3     1  UNL1        0.0305
     20 C          63.0268   85.5779   16.7716 C.3     1  UNL1        0.0025
     21 C          63.6702   84.9130   15.5909 C.3     1  UNL1        0.0002
     22 C          64.3234   85.7436   14.5263 C.3     1  UNL1        0.0025
     23 C          64.3331   87.2391   14.6424 C.3     1  UNL1        0.0305
     24 O          63.0897   88.7055   16.9400 O.3     1  UNL1       -0.2256
     25 O          63.3303   90.1575   16.6497 O.3     1  UNL1       -0.2251
@<TRIPOS>BOND
     1    12    13    1
     2    13     6    1
     3     6     7   ar
     4     7     8   ar
     5     8     9   ar
     6     9     5    1
     7     5     1    1
     8     1     2   am
     9     2     3    2
    10     2    14    1
    11    14    15    1
    12    15    16    1
    13    15    17    1
    14    17    18    1
    15    18    19    1
    16    19    20    1
    17    20    21    1
    18    21    22    1
    19    22    23    1
    20    18    24    1
    21    24    25    1
    22     9    10   ar
    23    10    11   ar
    24    11     6   ar
    25    25    15    1
    26    23    18    1
    27     1     4    1
@<TRIPOS>MOLECULE
*****
 25 27 0 0 0
SMALL
GASTEIGER

@<TRIPOS>ATOM
      1 N          64.6058   87.0955   14.9356 N.am    1  UNL1       -0.3004
      2 C          64.1492   88.5129   15.1162 C.2     1  UNL1        0.2252
      3 O          62.9282   88.8089   15.9355 O.2     1  UNL1       -0.2750
      4 H          65.4072   86.9012   14.3978 H       1  UNL1        0.1497
      5 C          63.8413   85.9742   15.5743 C.3     1  UNL1        0.1163
      6 C          63.0333   82.1987   13.2629 C.ar    1  UNL1        0.0252
      7 C          64.1012   83.1460   12.8024 C.ar    1  UNL1        0.0059
      8 C          64.3705   84.4045   13.5728 C.ar    1  UNL1       -0.0021
      9 C          63.5719   84.7157   14.8039 C.ar    1  UNL1       -0.0025
     10 C          62.5040   83.7684   15.2644 C.ar    1  UNL1       -0.0021
     11 C          62.2347   82.5098   14.4939 C.ar    1  UNL1        0.0059
     12 C          62.3309   79.6979   13.2128 C.3     1  UNL1        0.0742
     13 S          62.7640   80.9401   12.4924 S.3     1  UNL1       -0.1127
     14 C          64.9138   89.6343   14.4774 C.3     1  UNL1        0.1154
     15 C          64.2226   90.5684   13.5289 C.3     1  UNL1        0.1377
     16 C          64.8817   91.6374   14.3492 C.3     1  UNL1        0.0335
     17 C          63.7080   89.3042   12.9069 C.3     1  UNL1        0.0613
     18 C          62.8364   89.6804   11.7454 C.3     1  UNL1        0.1290
     19 C          61.9967   90.2063   10.6193 C.3     1  UNL1        0.0305
     20 C          61.2758   89.2531    9.7128 C.3     1  UNL1        0.0025
     21 C          61.3946   87.7740    9.9325 C.3     1  UNL1        0.0002
     22 C          62.2344   87.2482   11.0586 C.3     1  UNL1        0.0025
     23 C          62.9553   88.2013   11.9651 C.3     1  UNL1        0.0305
     24 O          62.8124   91.1772   11.6496 O.3     1  UNL1       -0.2256
     25 O          63.6691   91.7260   12.7519 O.3     1  UNL1       -0.2251
@<TRIPOS>BOND
     1    12    13    1
     2    13     6    1
     3     6     7   ar
     4     7     8   ar
     5     8     9   ar
     6     9     5    1
     7     5     1    1
     8     1     2   am
     9     2     3    2
    10     2    14    1
    11    14    15    1
    12    15    16    1
    13    15    17    1
    14    17    18    1
    15    18    19    1
    16    19    20    1
    17    20    21    1
    18    21    22    1
    19    22    23    1
    20    18    24    1
    21    24    25    1
    22     9    10   ar
    23    10    11   ar
    24    11     6   ar
    25    25    15    1
    26    23    18    1
    27     1     4    1
@<TRIPOS>MOLECULE
*****
 25 27 0 0 0
SMALL
GASTEIGER

@<TRIPOS>ATOM
      1 N          63.2462   87.3361   12.2856 N.am    1  UNL1       -0.3004
      2 C          62.9714   88.8076   12.3827 C.2     1  UNL1        0.2252
      3 O          63.0497   89.4992   13.7114 O.2     1  UNL1       -0.2750
      4 H          63.1948   86.8823   11.4135 H       1  UNL1        0.1497
      5 C          63.5992   86.5563   13.5174 C.3     1  UNL1        0.1163
      6 C          62.5462   82.1901   13.7948 C.ar    1  UNL1        0.0252
      7 C          62.8302   82.8097   12.4586 C.ar    1  UNL1        0.0059
      8 C          63.1812   84.2651   12.3661 C.ar    1  UNL1       -0.0021
      9 C          63.2482   85.1009   13.6098 C.ar    1  UNL1       -0.0025
     10 C          62.9643   84.4814   14.9461 C.ar    1  UNL1       -0.0021
     11 C          62.6132   83.0259   15.0385 C.ar    1  UNL1        0.0059
     12 C          62.5043   79.8146   12.7437 C.3     1  UNL1        0.0742
     13 S          62.1952   80.7346   13.8872 S.3     1  UNL1       -0.1127
     14 C          62.6183   89.5875   11.1509 C.3     1  UNL1        0.1154
     15 C          61.3304   89.3128   10.4329 C.3     1  UNL1        0.1377
     16 C          60.8527   90.5426   11.1466 C.3     1  UNL1        0.0335
     17 C          62.0773   88.1405    9.8693 C.3     1  UNL1        0.0613
     18 C          61.1511   87.3982    8.9520 C.3     1  UNL1        0.1290
     19 C          60.1164   86.7637    8.0707 C.3     1  UNL1        0.0305
     20 C          60.4509   85.5253    7.2932 C.3     1  UNL1        0.0025
     21 C          61.8200   84.9214    7.3971 C.3     1  UNL1        0.0002
     22 C          62.8547   85.5559    8.2785 C.3     1  UNL1        0.0025
     23 C          62.5203   86.7943    9.0559 C.3     1  UNL1        0.0305
     24 O          59.8317   88.1118    8.9488 O.3     1  UNL1       -0.2256
     25 O          59.9425   89.2951    9.8641 O.3     1  UNL1       -0.2251
@<TRIPOS>BOND
     1    12    13    1
     2    13     6    1
     3     6     7   ar
     4     7     8   ar
     5     8     9   ar
     6     9     5    1
     7     5     1    1
     8     1     2   am
     9     2     3    2
    10     2    14    1
    11    14    15    1
    12    15    16    1
    13    15    17    1
    14    17    18    1
    15    18    19    1
    16    19    20    1
    17    20    21    1
    18    21    22    1
    19    22    23    1
    20    18    24    1
    21    24    25    1
    22     9    10   ar
    23    10    11   ar
    24    11     6   ar
    25    25    15    1
    26    23    18    1
    27     1     4    1
@<TRIPOS>MOLECULE
*****
 25 27 0 0 0
SMALL
GASTEIGER

@<TRIPOS>ATOM
      1 N          64.1020   87.8422   13.9593 N.am    1  UNL1       -0.3004
      2 C          63.4073   88.9975   14.6172 C.2     1  UNL1        0.2252
      3 O          63.1698   88.9850   16.0982 O.2     1  UNL1       -0.2750
      4 H          64.2579   87.8504   12.9872 H       1  UNL1        0.1497
      5 C          64.5591   86.6745   14.7824 C.3     1  UNL1        0.1163
      6 C          62.6253   82.6472   14.2434 C.ar    1  UNL1        0.0252
      7 C          62.2984   83.4811   15.4466 C.ar    1  UNL1        0.0059
      8 C          62.9430   84.8236   15.6262 C.ar    1  UNL1       -0.0021
      9 C          63.9145   85.3321   14.6027 C.ar    1  UNL1       -0.0025
     10 C          64.2415   84.4982   13.3995 C.ar    1  UNL1       -0.0021
     11 C          63.5968   83.1557   13.2199 C.ar    1  UNL1        0.0059
     12 C          62.4731   80.3731   12.9963 C.3     1  UNL1        0.0742
     13 S          61.9807   81.3047   14.0638 S.3     1  UNL1       -0.1127
     14 C          62.9501   90.1652   13.7941 C.3     1  UNL1        0.1154
     15 C          63.9305   90.9060   12.9340 C.3     1  UNL1        0.1377
     16 C          63.0842   90.3976   11.8047 C.3     1  UNL1        0.0335
     17 C          64.5718   91.2596   14.2430 C.3     1  UNL1        0.0613
     18 C          65.7718   92.1128   13.9559 C.3     1  UNL1        0.1290
     19 C          66.9354   92.9513   13.5167 C.3     1  UNL1        0.0305
     20 C          67.8707   93.5292   14.5370 C.3     1  UNL1        0.0025
     21 C          67.6426   93.2686   15.9965 C.3     1  UNL1        0.0002
     22 C          66.4790   92.4301   16.4356 C.3     1  UNL1        0.0025
     23 C          65.5436   91.8522   15.4154 C.3     1  UNL1        0.0305
     24 O          65.8720   92.2864   12.4694 O.3     1  UNL1       -0.2256
     25 O          64.7341   91.5406   11.8377 O.3     1  UNL1       -0.2251
@<TRIPOS>BOND
     1    12    13    1
     2    13     6    1
     3     6     7   ar
     4     7     8   ar
     5     8     9   ar
     6     9     5    1
     7     5     1    1
     8     1     2   am
     9     2     3    2
    10     2    14    1
    11    14    15    1
    12    15    16    1
    13    15    17    1
    14    17    18    1
    15    18    19    1
    16    19    20    1
    17    20    21    1
    18    21    22    1
    19    22    23    1
    20    18    24    1
    21    24    25    1
    22     9    10   ar
    23    10    11   ar
    24    11     6   ar
    25    25    15    1
    26    23    18    1
    27     1     4    1
