@<TRIPOS>MOLECULE
*****
 37 40 0 0 0
SMALL
GASTEIGER

@<TRIPOS>ATOM
      1 C          64.2769   89.6534   14.2538 C.3     1  UNL1        0.0378
      2 C          64.8902   90.1878   15.5140 C.3     1  UNL1        0.0075
      3 C          65.6378   91.4880   15.4915 C.3     1  UNL1        0.0219
      4 C          65.7721   92.2538   14.2087 C.3     1  UNL1        0.0950
      5 N          65.1589   91.7194   12.9485 N.am    1  UNL1       -0.2637
      6 C          65.2932   92.4852   11.6656 C.2     1  UNL1        0.3077
      7 O          64.6798   91.9507   10.4054 O.2     1  UNL1       -0.2522
      8 N          66.0408   93.7854   11.6432 N.am    1  UNL1       -0.2681
      9 C          64.4112   90.4192   12.9709 C.3     1  UNL1        0.0989
     10 H          66.4433   94.1362   12.4703 H       1  UNL1        0.1564
     11 C          66.1750   94.5512   10.3604 C.ar    1  UNL1        0.0516
     12 C          65.3504   95.7834   10.1327 C.ar    1  UNL1        0.0156
     13 C          65.4846   96.5491    8.8499 C.ar    1  UNL1        0.0127
     14 C          66.4434   96.0828    7.7948 C.ar    1  UNL1        0.0578
     15 CL         66.5776   96.8486    6.5120 Cl      1  UNL1       -0.0822
     16 C          67.2680   94.8507    8.0225 C.ar    1  UNL1        0.0127
     17 C          67.1338   94.0848    9.3053 C.ar    1  UNL1        0.0156
     18 C          63.8820   88.5714   15.2148 C.ar    1  UNL1       -0.0212
     19 C          64.2445   87.1445   14.9279 C.ar    1  UNL1       -0.0042
     20 C          63.8495   86.0626   15.8889 C.ar    1  UNL1       -0.0003
     21 C          63.0920   86.4077   17.1367 C.ar    1  UNL1       -0.0000
     22 C          62.7295   87.8347   17.4236 C.ar    1  UNL1       -0.0003
     23 C          63.1245   88.9165   16.4626 C.ar    1  UNL1       -0.0042
     24 C          63.5264   88.7432   13.3272 C.3     1  UNL1        0.0169
     25 C          63.1073   89.2319   11.9724 C.3     1  UNL1        0.1035
     26 O          61.7871   87.0307   11.5699 O.2     1  UNL1       -0.2567
     27 C          62.1549   88.4212   11.1443 C.2     1  UNL1        0.2843
     28 N          61.5704   89.0012    9.8905 N.am    1  UNL1       -0.1730
     29 H          61.8118   89.9138    9.6112 H       1  UNL1        0.2541
     30 C          60.6179   88.1905    9.0623 C.2     1  UNL1        0.4137
     31 N          59.6846   88.7243    8.0164 N.2     1  UNL1        0.0207
     32 N          58.9214   87.5675    7.4424 N.pl3   1  UNL1       -0.1085
     33 N          59.3832   86.3188    8.1335 N.3     1  UNL1       -0.0823
     34 N          60.4317   86.7039    9.1348 N.pl3   1  UNL1       -0.1445
     35 H          58.2376   87.6188    6.7360 H       1  UNL1        0.2096
     36 H          59.7774   85.6711    7.4513 H       1  UNL1        0.1872
     37 H          60.9131   86.0890    9.7342 H       1  UNL1        0.2705
@<TRIPOS>BOND
     1    26    27    2
     2    27    25    1
     3    25    24    1
     4    24     1    1
     5     1    18    1
     6    18    19   ar
     7    19    20   ar
     8    20    21   ar
     9    21    22   ar
    10    22    23   ar
    11     1     2    1
    12     2     3    1
    13     3     4    1
    14     4     5    1
    15     5     6   am
    16     6     7    2
    17     6     8   am
    18     8    11    1
    19    11    12   ar
    20    12    13   ar
    21    13    14   ar
    22    14    15    1
    23    14    16   ar
    24    16    17   ar
    25     5     9    1
    26    27    28   am
    27    28    30    1
    28    30    31    2
    29    31    32    1
    30    32    33    1
    31    33    34    1
    32     9     1    1
    33    34    30    1
    34    23    18   ar
    35    17    11   ar
    36     8    10    1
    37    28    29    1
    38    32    35    1
    39    33    36    1
    40    34    37    1
@<TRIPOS>MOLECULE
*****
 37 40 0 0 0
SMALL
GASTEIGER

@<TRIPOS>ATOM
      1 C          65.5998   91.6430   13.4569 C.3     1  UNL1        0.0378
      2 C          66.0415   92.7830   12.5879 C.3     1  UNL1        0.0075
      3 C          65.4486   92.9579   11.2213 C.3     1  UNL1        0.0219
      4 C          64.4138   91.9926   10.7235 C.3     1  UNL1        0.0950
      5 N          63.9721   90.8526   11.5925 N.am    1  UNL1       -0.2637
      6 C          62.9374   89.8873   11.0948 C.2     1  UNL1        0.3077
      7 O          62.4957   88.7473   11.9638 O.2     1  UNL1       -0.2522
      8 N          62.3444   90.0622    9.7281 N.am    1  UNL1       -0.2681
      9 C          64.5650   90.6777   12.9592 C.3     1  UNL1        0.0989
     10 H          62.6344   90.8104    9.1577 H       1  UNL1        0.1564
     11 C          61.3098   89.0969    9.2305 C.ar    1  UNL1        0.0516
     12 C          60.1491   89.5934    8.4201 C.ar    1  UNL1        0.0156
     13 C          59.1145   88.6282    7.9225 C.ar    1  UNL1        0.0127
     14 C          59.2403   87.1665    8.2351 C.ar    1  UNL1        0.0578
     15 CL         58.2055   86.2013    7.7374 Cl      1  UNL1       -0.0822
     16 C          60.4008   86.6701    9.0454 C.ar    1  UNL1        0.0127
     17 C          61.4356   87.6353    9.5431 C.ar    1  UNL1        0.0156
     18 C          66.6020   92.2904   14.3661 C.ar    1  UNL1       -0.0212
     19 C          67.4811   91.4433   15.2376 C.ar    1  UNL1       -0.0042
     20 C          68.4832   92.0907   16.1468 C.ar    1  UNL1       -0.0003
     21 C          68.6062   93.5852   16.1844 C.ar    1  UNL1       -0.0000
     22 C          67.7271   94.4323   15.3129 C.ar    1  UNL1       -0.0003
     23 C          66.7250   93.7849   14.4037 C.ar    1  UNL1       -0.0042
     24 C          65.5061   90.7278   14.6417 C.3     1  UNL1        0.0169
     25 C          64.1647   90.2634   15.1264 C.3     1  UNL1        0.1035
     26 O          63.2168   88.3336   16.5850 O.2     1  UNL1       -0.2567
     27 C          63.9093   88.8006   15.3391 C.2     1  UNL1        0.2843
     28 N          64.3463   87.8050   14.3058 N.am    1  UNL1       -0.1730
     29 H          64.8008   88.1116   13.4880 H       1  UNL1        0.2541
     30 C          64.0909   86.3423   14.5185 C.2     1  UNL1        0.4137
     31 N          63.2553   85.4566   13.6423 N.2     1  UNL1        0.0207
     32 N          63.2742   84.0754   14.2270 N.pl3   1  UNL1       -0.1085
     33 N          64.1214   84.1074   15.4644 N.3     1  UNL1       -0.0823
     34 N          64.6261   85.5084   15.6446 N.pl3   1  UNL1       -0.1445
     35 H          62.8117   83.2864   13.8625 H       1  UNL1        0.2096
     36 H          64.9082   83.4665   15.3619 H       1  UNL1        0.1872
     37 H          65.2068   85.8250   16.3738 H       1  UNL1        0.2705
@<TRIPOS>BOND
     1    26    27    2
     2    27    25    1
     3    25    24    1
     4    24     1    1
     5     1    18    1
     6    18    19   ar
     7    19    20   ar
     8    20    21   ar
     9    21    22   ar
    10    22    23   ar
    11     1     2    1
    12     2     3    1
    13     3     4    1
    14     4     5    1
    15     5     6   am
    16     6     7    2
    17     6     8   am
    18     8    11    1
    19    11    12   ar
    20    12    13   ar
    21    13    14   ar
    22    14    15    1
    23    14    16   ar
    24    16    17   ar
    25     5     9    1
    26    27    28   am
    27    28    30    1
    28    30    31    2
    29    31    32    1
    30    32    33    1
    31    33    34    1
    32     9     1    1
    33    34    30    1
    34    23    18   ar
    35    17    11   ar
    36     8    10    1
    37    28    29    1
    38    32    35    1
    39    33    36    1
    40    34    37    1
@<TRIPOS>MOLECULE
*****
 37 40 0 0 0
SMALL
GASTEIGER

@<TRIPOS>ATOM
      1 C          62.9996   84.2637   13.5217 C.3     1  UNL1        0.0378
      2 C          63.3270   83.8412   14.9231 C.3     1  UNL1        0.0075
      3 C          63.9479   84.8195   15.8758 C.3     1  UNL1        0.0219
      4 C          64.2414   86.2203   15.4268 C.3     1  UNL1        0.0950
      5 N          63.9141   86.6428   14.0253 N.am    1  UNL1       -0.2637
      6 C          64.2076   88.0437   13.5763 C.2     1  UNL1        0.3077
      7 O          63.8802   88.4661   12.1748 O.2     1  UNL1       -0.2522
      8 N          64.8285   89.0219   14.5289 N.am    1  UNL1       -0.2681
      9 C          63.2932   85.6646   13.0727 C.3     1  UNL1        0.0989
     10 H          65.0434   88.7447   15.4488 H       1  UNL1        0.1564
     11 C          65.1220   90.4227   14.0799 C.ar    1  UNL1        0.0516
     12 C          66.0406   91.2919   14.8867 C.ar    1  UNL1        0.0156
     13 C          66.3341   92.6926   14.4377 C.ar    1  UNL1        0.0127
     14 C          65.7091   93.2243   13.1820 C.ar    1  UNL1        0.0578
     15 CL         66.0027   94.6252   12.7331 Cl      1  UNL1       -0.0822
     16 C          64.7905   92.3552   12.3753 C.ar    1  UNL1        0.0127
     17 C          64.4970   90.9544   12.8243 C.ar    1  UNL1        0.0156
     18 C          62.5365   82.8376   13.4786 C.ar    1  UNL1       -0.0212
     19 C          63.1600   81.8754   12.5115 C.ar    1  UNL1       -0.0042
     20 C          62.6969   80.4494   12.4685 C.ar    1  UNL1       -0.0003
     21 C          61.6103   79.9855   13.3927 C.ar    1  UNL1       -0.0000
     22 C          60.9868   80.9477   14.3599 C.ar    1  UNL1       -0.0003
     23 C          61.4499   82.3737   14.4028 C.ar    1  UNL1       -0.0042
     24 C          62.5114   84.1910   12.1052 C.3     1  UNL1        0.0169
     25 C          63.0958   85.0977   11.0630 C.3     1  UNL1        0.1035
     26 O          62.6025   85.2181    8.5150 O.2     1  UNL1       -0.2567
     27 C          62.2446   85.5801    9.9259 C.2     1  UNL1        0.2843
     28 N          61.0356   86.4246   10.2000 N.am    1  UNL1       -0.1730
     29 H          60.8007   86.6622   11.1261 H       1  UNL1        0.2541
     30 C          60.1844   86.9070    9.0630 C.2     1  UNL1        0.4137
     31 N          59.8963   88.3394    8.7232 N.2     1  UNL1        0.0207
     32 N          59.0057   88.3594    7.5164 N.pl3   1  UNL1       -0.1085
     33 N          58.7434   86.9394    7.1103 N.3     1  UNL1       -0.0823
     34 N          59.4718   86.0418    8.0662 N.pl3   1  UNL1       -0.1445
     35 H          58.6550   89.1634    7.0693 H       1  UNL1        0.2096
     36 H          59.0826   86.7825    6.1612 H       1  UNL1        0.1872
     37 H          59.4807   85.0576    8.0433 H       1  UNL1        0.2705
@<TRIPOS>BOND
     1    26    27    2
     2    27    25    1
     3    25    24    1
     4    24     1    1
     5     1    18    1
     6    18    19   ar
     7    19    20   ar
     8    20    21   ar
     9    21    22   ar
    10    22    23   ar
    11     1     2    1
    12     2     3    1
    13     3     4    1
    14     4     5    1
    15     5     6   am
    16     6     7    2
    17     6     8   am
    18     8    11    1
    19    11    12   ar
    20    12    13   ar
    21    13    14   ar
    22    14    15    1
    23    14    16   ar
    24    16    17   ar
    25     5     9    1
    26    27    28   am
    27    28    30    1
    28    30    31    2
    29    31    32    1
    30    32    33    1
    31    33    34    1
    32     9     1    1
    33    34    30    1
    34    23    18   ar
    35    17    11   ar
    36     8    10    1
    37    28    29    1
    38    32    35    1
    39    33    36    1
    40    34    37    1
@<TRIPOS>MOLECULE
*****
 37 40 0 0 0
SMALL
GASTEIGER

@<TRIPOS>ATOM
      1 C          65.7715   91.5524   13.7680 C.3     1  UNL1        0.0378
      2 C          65.6374   90.7957   15.0561 C.3     1  UNL1        0.0075
      3 C          64.6526   89.6695   15.1654 C.3     1  UNL1        0.0219
      4 C          63.8019   89.3000   13.9864 C.3     1  UNL1        0.0950
      5 N          63.9360   90.0567   12.6983 N.am    1  UNL1       -0.2637
      6 C          63.0853   89.6872   11.5193 C.2     1  UNL1        0.3077
      7 O          63.2195   90.4440   10.2312 O.2     1  UNL1       -0.2522
      8 N          62.1006   88.5610   11.6286 N.am    1  UNL1       -0.2681
      9 C          64.9208   91.1829   12.5890 C.3     1  UNL1        0.0989
     10 H          62.0126   88.0644   12.4741 H       1  UNL1        0.1564
     11 C          61.2500   88.1916   10.4496 C.ar    1  UNL1        0.0516
     12 C          61.0904   86.7513   10.0618 C.ar    1  UNL1        0.0156
     13 C          60.2399   86.3819    8.8830 C.ar    1  UNL1        0.0127
     14 C          59.5487   87.4526    8.0917 C.ar    1  UNL1        0.0578
     15 CL         58.6981   87.0831    6.9128 Cl      1  UNL1       -0.0822
     16 C          59.7082   88.8928    8.4795 C.ar    1  UNL1        0.0127
     17 C          60.5589   89.2623    9.6585 C.ar    1  UNL1        0.0156
     18 C          66.7918   92.2714   14.5998 C.ar    1  UNL1       -0.0212
     19 C          67.6989   91.4967   15.5092 C.ar    1  UNL1       -0.0042
     20 C          68.7192   92.2158   16.3410 C.ar    1  UNL1       -0.0003
     21 C          68.8323   93.7095   16.2635 C.ar    1  UNL1       -0.0000
     22 C          67.9252   94.4841   15.3541 C.ar    1  UNL1       -0.0003
     23 C          66.9050   93.7651   14.5223 C.ar    1  UNL1       -0.0042
     24 C          66.2599   92.5588   12.7687 C.3     1  UNL1        0.0169
     25 C          65.8440   92.4515   11.3315 C.3     1  UNL1        0.1035
     26 O          67.8147   92.9815    9.7234 O.2     1  UNL1       -0.2567
     27 C          66.4763   93.3378   10.2996 C.2     1  UNL1        0.2843
     28 N          65.7702   94.5802    9.8439 N.am    1  UNL1       -0.1730
     29 H          64.8918   94.8140   10.2220 H       1  UNL1        0.2541
     30 C          66.4025   95.4665    8.8119 C.2     1  UNL1        0.4137
     31 N          65.7247   96.0277    7.5971 N.2     1  UNL1        0.0207
     32 N          66.7268   96.8552    6.8480 N.pl3   1  UNL1       -0.1085
     33 N          68.0239   96.8053    7.5999 N.3     1  UNL1       -0.0823
     34 N          67.8234   95.9470    8.8137 N.pl3   1  UNL1       -0.1445
     35 H          66.5622   97.3450    6.0101 H       1  UNL1        0.2096
     36 H          68.2964   97.7466    7.8828 H       1  UNL1        0.1872
     37 H          68.5047   95.7361    9.4923 H       1  UNL1        0.2705
@<TRIPOS>BOND
     1    26    27    2
     2    27    25    1
     3    25    24    1
     4    24     1    1
     5     1    18    1
     6    18    19   ar
     7    19    20   ar
     8    20    21   ar
     9    21    22   ar
    10    22    23   ar
    11     1     2    1
    12     2     3    1
    13     3     4    1
    14     4     5    1
    15     5     6   am
    16     6     7    2
    17     6     8   am
    18     8    11    1
    19    11    12   ar
    20    12    13   ar
    21    13    14   ar
    22    14    15    1
    23    14    16   ar
    24    16    17   ar
    25     5     9    1
    26    27    28   am
    27    28    30    1
    28    30    31    2
    29    31    32    1
    30    32    33    1
    31    33    34    1
    32     9     1    1
    33    34    30    1
    34    23    18   ar
    35    17    11   ar
    36     8    10    1
    37    28    29    1
    38    32    35    1
    39    33    36    1
    40    34    37    1
@<TRIPOS>MOLECULE
*****
 37 40 0 0 0
SMALL
GASTEIGER

@<TRIPOS>ATOM
      1 C          63.1706   82.5208   12.3510 C.3     1  UNL1        0.0378
      2 C          63.3438   81.6243   13.5410 C.3     1  UNL1        0.0075
      3 C          63.6005   82.2163   14.8951 C.3     1  UNL1        0.0219
      4 C          63.6840   83.7050   15.0591 C.3     1  UNL1        0.0950
      5 N          63.5109   84.6016   13.8691 N.am    1  UNL1       -0.2637
      6 C          63.5945   86.0903   14.0332 C.2     1  UNL1        0.3077
      7 O          63.4213   86.9868   12.8431 O.2     1  UNL1       -0.2522
      8 N          63.8512   86.6823   15.3873 N.am    1  UNL1       -0.2681
      9 C          63.2542   84.0095   12.5150 C.3     1  UNL1        0.0989
     10 H          63.9648   86.0939   16.1683 H       1  UNL1        0.1564
     11 C          63.9347   88.1710   15.5512 C.ar    1  UNL1        0.0516
     12 C          64.7389   88.9881   14.5838 C.ar    1  UNL1        0.0156
     13 C          64.8225   90.4766   14.7477 C.ar    1  UNL1        0.0127
     14 C          64.1020   91.1483   15.8790 C.ar    1  UNL1        0.0578
     15 CL         64.1856   92.6370   16.0429 Cl      1  UNL1       -0.0822
     16 C          63.2978   90.3313   16.8464 C.ar    1  UNL1        0.0127
     17 C          63.2142   88.8426   16.6825 C.ar    1  UNL1        0.0156
     18 C          63.0072   81.1820   11.6944 C.ar    1  UNL1       -0.0212
     19 C          62.6208   79.9868   12.5142 C.ar    1  UNL1       -0.0042
     20 C          62.4574   78.6481   11.8576 C.ar    1  UNL1       -0.0003
     21 C          62.6804   78.5047   10.3812 C.ar    1  UNL1       -0.0000
     22 C          63.0669   79.6999    9.5615 C.ar    1  UNL1       -0.0003
     23 C          63.2303   81.0386   10.2181 C.ar    1  UNL1       -0.0042
     24 C          62.9408   82.9525   10.9329 C.3     1  UNL1        0.0169
     25 C          63.3230   84.3364   10.4989 C.3     1  UNL1        0.1035
     26 O          62.8145   85.0028    8.0397 O.2     1  UNL1       -0.2567
     27 C          62.4776   85.0695    9.4999 C.2     1  UNL1        0.2843
     28 N          61.2954   85.8693    9.9611 N.am    1  UNL1       -0.1730
     29 H          61.0744   85.9130   10.9195 H       1  UNL1        0.2541
     30 C          60.4500   86.6024    8.9621 C.2     1  UNL1        0.4137
     31 N          60.2209   88.0842    8.9196 N.2     1  UNL1        0.0207
     32 N          59.3146   88.3800    7.7615 N.pl3   1  UNL1       -0.1085
     33 N          58.9837   87.0810    7.0883 N.3     1  UNL1       -0.0823
     34 N          59.6854   85.9824    7.8304 N.pl3   1  UNL1       -0.1445
     35 H          58.9934   89.2704    7.4907 H       1  UNL1        0.2096
     36 H          59.3018   87.1023    6.1194 H       1  UNL1        0.1872
     37 H          59.6503   85.0228    7.6128 H       1  UNL1        0.2705
@<TRIPOS>BOND
     1    26    27    2
     2    27    25    1
     3    25    24    1
     4    24     1    1
     5     1    18    1
     6    18    19   ar
     7    19    20   ar
     8    20    21   ar
     9    21    22   ar
    10    22    23   ar
    11     1     2    1
    12     2     3    1
    13     3     4    1
    14     4     5    1
    15     5     6   am
    16     6     7    2
    17     6     8   am
    18     8    11    1
    19    11    12   ar
    20    12    13   ar
    21    13    14   ar
    22    14    15    1
    23    14    16   ar
    24    16    17   ar
    25     5     9    1
    26    27    28   am
    27    28    30    1
    28    30    31    2
    29    31    32    1
    30    32    33    1
    31    33    34    1
    32     9     1    1
    33    34    30    1
    34    23    18   ar
    35    17    11   ar
    36     8    10    1
    37    28    29    1
    38    32    35    1
    39    33    36    1
    40    34    37    1
@<TRIPOS>MOLECULE
*****
 37 40 0 0 0
SMALL
GASTEIGER

@<TRIPOS>ATOM
      1 C          63.9917   88.0747   14.6416 C.3     1  UNL1        0.0378
      2 C          63.9192   87.8187   16.1178 C.3     1  UNL1        0.0075
      3 C          63.6968   86.4256   16.6274 C.3     1  UNL1        0.0219
      4 C          63.5470   85.2884   15.6608 C.3     1  UNL1        0.0950
      5 N          63.6196   85.5443   14.1846 N.am    1  UNL1       -0.2637
      6 C          63.4698   84.4071   13.2180 C.2     1  UNL1        0.3077
      7 O          63.5424   84.6631   11.7418 O.2     1  UNL1       -0.2522
      8 N          63.2474   83.0140   13.7276 N.am    1  UNL1       -0.2681
      9 C          63.8419   86.9375   13.6750 C.3     1  UNL1        0.0989
     10 H          63.1998   82.8460   14.6965 H       1  UNL1        0.1564
     11 C          63.0976   81.8768   12.7609 C.ar    1  UNL1        0.0516
     12 C          62.6304   80.5365   13.2463 C.ar    1  UNL1        0.0156
     13 C          62.4806   79.3994   12.2797 C.ar    1  UNL1        0.0127
     14 C          62.7980   79.6024   10.8277 C.ar    1  UNL1        0.0578
     15 CL         62.6481   78.4652    9.8611 Cl      1  UNL1       -0.0822
     16 C          63.2652   80.9426   10.3424 C.ar    1  UNL1        0.0127
     17 C          63.4150   82.0799   11.3091 C.ar    1  UNL1        0.0156
     18 C          64.1908   89.4690   15.1578 C.ar    1  UNL1       -0.0212
     19 C          65.2683   90.3366   14.5781 C.ar    1  UNL1       -0.0042
     20 C          65.4673   91.7309   15.0943 C.ar    1  UNL1       -0.0003
     21 C          64.5887   92.2574   16.1901 C.ar    1  UNL1       -0.0000
     22 C          63.5112   91.3898   16.7698 C.ar    1  UNL1       -0.0003
     23 C          63.3122   89.9956   16.2536 C.ar    1  UNL1       -0.0042
     24 C          64.1334   88.8149   13.3446 C.3     1  UNL1        0.0169
     25 C          62.9162   89.3451   12.6468 C.3     1  UNL1        0.1035
     26 O          62.7179   89.5769   10.0667 O.2     1  UNL1       -0.2567
     27 C          62.5064   88.7794   11.3194 C.2     1  UNL1        0.2843
     28 N          61.8853   87.4161   11.2447 N.am    1  UNL1       -0.1730
     29 H          61.7465   86.8926   12.0669 H       1  UNL1        0.2541
     30 C          61.4756   86.8503    9.9172 C.2     1  UNL1        0.4137
     31 N          60.1484   87.0477    9.2464 N.2     1  UNL1        0.0207
     32 N          60.1737   86.3073    7.9422 N.pl3   1  UNL1       -0.1085
     33 N          61.5164   85.6523    7.8069 N.3     1  UNL1       -0.0823
     34 N          62.3210   85.9879    9.0276 N.pl3   1  UNL1       -0.1445
     35 H          59.4382   86.2595    7.2895 H       1  UNL1        0.2096
     36 H          61.9896   86.0016    6.9736 H       1  UNL1        0.1872
     37 H          63.2421   85.6938    9.2124 H       1  UNL1        0.2705
@<TRIPOS>BOND
     1    26    27    2
     2    27    25    1
     3    25    24    1
     4    24     1    1
     5     1    18    1
     6    18    19   ar
     7    19    20   ar
     8    20    21   ar
     9    21    22   ar
    10    22    23   ar
    11     1     2    1
    12     2     3    1
    13     3     4    1
    14     4     5    1
    15     5     6   am
    16     6     7    2
    17     6     8   am
    18     8    11    1
    19    11    12   ar
    20    12    13   ar
    21    13    14   ar
    22    14    15    1
    23    14    16   ar
    24    16    17   ar
    25     5     9    1
    26    27    28   am
    27    28    30    1
    28    30    31    2
    29    31    32    1
    30    32    33    1
    31    33    34    1
    32     9     1    1
    33    34    30    1
    34    23    18   ar
    35    17    11   ar
    36     8    10    1
    37    28    29    1
    38    32    35    1
    39    33    36    1
    40    34    37    1
@<TRIPOS>MOLECULE
*****
 37 40 0 0 0
SMALL
GASTEIGER

@<TRIPOS>ATOM
      1 C          64.1178   90.0667   13.8375 C.3     1  UNL1        0.0378
      2 C          64.4027   89.0571   14.9097 C.3     1  UNL1        0.0075
      3 C          64.1790   87.5979   14.6443 C.3     1  UNL1        0.0219
      4 C          63.6703   87.1482   13.3067 C.3     1  UNL1        0.0950
      5 N          63.3854   88.1577   12.2346 N.am    1  UNL1       -0.2637
      6 C          62.8767   87.7080   10.8970 C.2     1  UNL1        0.3077
      7 O          62.5918   88.7176    9.8249 O.2     1  UNL1       -0.2522
      8 N          62.6530   86.2487   10.6317 N.am    1  UNL1       -0.2681
      9 C          63.6091   89.6170   12.4999 C.3     1  UNL1        0.0989
     10 H          62.8400   85.5861   11.3354 H       1  UNL1        0.1564
     11 C          62.1443   85.7991    9.2941 C.ar    1  UNL1        0.0516
     12 C          63.0538   85.0644    8.3542 C.ar    1  UNL1        0.0156
     13 C          62.5452   84.6148    7.0167 C.ar    1  UNL1        0.0127
     14 C          61.1272   84.8998    6.6189 C.ar    1  UNL1        0.0578
     15 CL         60.6186   84.4501    5.2813 Cl      1  UNL1       -0.0822
     16 C          60.2178   85.6344    7.5587 C.ar    1  UNL1        0.0127
     17 C          60.7264   86.0841    8.8964 C.ar    1  UNL1        0.0156
     18 C          64.5837   90.9768   14.9351 C.ar    1  UNL1       -0.0212
     19 C          63.6784   91.2817   16.0916 C.ar    1  UNL1       -0.0042
     20 C          64.1443   92.1918   17.1891 C.ar    1  UNL1       -0.0003
     21 C          65.5155   92.7971   17.1301 C.ar    1  UNL1       -0.0000
     22 C          66.4208   92.4922   15.9736 C.ar    1  UNL1       -0.0003
     23 C          65.9549   91.5821   14.8761 C.ar    1  UNL1       -0.0042
     24 C          63.9946   91.3924   13.1465 C.3     1  UNL1        0.0169
     25 C          64.5808   91.5826   11.7790 C.3     1  UNL1        0.1035
     26 O          65.9081   93.6683   12.5777 O.2     1  UNL1       -0.2567
     27 C          65.3645   92.8224   11.4647 C.2     1  UNL1        0.2843
     28 N          65.6044   93.2162   10.0373 N.am    1  UNL1       -0.1730
     29 H          65.2476   92.6610    9.3068 H       1  UNL1        0.2541
     30 C          66.3881   94.4560    9.7230 C.2     1  UNL1        0.4137
     31 N          67.2626   94.6656    8.5224 N.2     1  UNL1        0.0207
     32 N          67.8499   96.0430    8.6115 N.pl3   1  UNL1       -0.1085
     33 N          67.3383   96.6847    9.8671 N.3     1  UNL1       -0.0823
     34 N          66.4349   95.7039   10.5541 N.pl3   1  UNL1       -0.1445
     35 H          68.4633   96.4538    7.9602 H       1  UNL1        0.2096
     36 H          66.8183   97.5312    9.6362 H       1  UNL1        0.1872
     37 H          65.9566   95.8529   11.4016 H       1  UNL1        0.2705
@<TRIPOS>BOND
     1    26    27    2
     2    27    25    1
     3    25    24    1
     4    24     1    1
     5     1    18    1
     6    18    19   ar
     7    19    20   ar
     8    20    21   ar
     9    21    22   ar
    10    22    23   ar
    11     1     2    1
    12     2     3    1
    13     3     4    1
    14     4     5    1
    15     5     6   am
    16     6     7    2
    17     6     8   am
    18     8    11    1
    19    11    12   ar
    20    12    13   ar
    21    13    14   ar
    22    14    15    1
    23    14    16   ar
    24    16    17   ar
    25     5     9    1
    26    27    28   am
    27    28    30    1
    28    30    31    2
    29    31    32    1
    30    32    33    1
    31    33    34    1
    32     9     1    1
    33    34    30    1
    34    23    18   ar
    35    17    11   ar
    36     8    10    1
    37    28    29    1
    38    32    35    1
    39    33    36    1
    40    34    37    1
@<TRIPOS>MOLECULE
*****
 37 40 0 0 0
SMALL
GASTEIGER

@<TRIPOS>ATOM
      1 C          61.9244   88.5937   10.3723 C.3     1  UNL1        0.0378
      2 C          61.6431   89.6497    9.3449 C.3     1  UNL1        0.0075
      3 C          62.3321   90.9795    9.4280 C.3     1  UNL1        0.0219
      4 C          63.3025   91.2533   10.5387 C.3     1  UNL1        0.0950
      5 N          63.5838   90.1973   11.5661 N.am    1  UNL1       -0.2637
      6 C          64.5542   90.4710   12.6767 C.2     1  UNL1        0.3077
      7 O          64.8355   89.4150   13.7041 O.2     1  UNL1       -0.2522
      8 N          65.2432   91.8008   12.7598 N.am    1  UNL1       -0.2681
      9 C          62.8948   88.8675   11.4829 C.3     1  UNL1        0.0989
     10 H          65.0586   92.4939   12.0855 H       1  UNL1        0.1564
     11 C          66.2136   92.0745   13.8704 C.ar    1  UNL1        0.0516
     12 C          67.6894   92.0143   13.6087 C.ar    1  UNL1        0.0156
     13 C          68.6598   92.2879   14.7192 C.ar    1  UNL1        0.0127
     14 C          68.1545   92.6218   16.0915 C.ar    1  UNL1        0.0578
     15 CL         69.1249   92.8955   17.2022 Cl      1  UNL1       -0.0822
     16 C          66.6787   92.6821   16.3533 C.ar    1  UNL1        0.0127
     17 C          65.7083   92.4084   15.2427 C.ar    1  UNL1        0.0156
     18 C          60.9320   87.8653    9.5152 C.ar    1  UNL1       -0.0212
     19 C          61.2917   86.5395    8.9129 C.ar    1  UNL1       -0.0042
     20 C          60.2994   85.8111    8.0558 C.ar    1  UNL1       -0.0003
     21 C          58.9473   86.4086    7.8009 C.ar    1  UNL1       -0.0000
     22 C          58.5876   87.7344    8.4032 C.ar    1  UNL1       -0.0003
     23 C          59.5800   88.4628    9.2603 C.ar    1  UNL1       -0.0042
     24 C          61.8612   87.2847   11.1021 C.3     1  UNL1        0.0169
     25 C          63.0343   86.8209   11.9136 C.3     1  UNL1        0.1035
     26 O          63.1430   85.5440   14.1736 O.2     1  UNL1       -0.2567
     27 C          62.9518   85.5376   12.6858 C.2     1  UNL1        0.2843
     28 N          62.6782   84.2480   11.9702 N.am    1  UNL1       -0.1730
     29 H          62.5527   84.2439   10.9938 H       1  UNL1        0.2541
     30 C          62.5957   82.9647   12.7425 C.2     1  UNL1        0.4137
     31 N          62.7499   81.5839   12.1769 N.2     1  UNL1        0.0207
     32 N          62.5940   80.6027   13.3008 N.pl3   1  UNL1       -0.1085
     33 N          62.3435   81.3771   14.5608 N.3     1  UNL1       -0.0823
     34 N          62.3445   82.8369   14.2157 N.pl3   1  UNL1       -0.1445
     35 H          62.6469   79.6226   13.2247 H       1  UNL1        0.2096
     36 H          63.0793   81.1813   15.2395 H       1  UNL1        0.1872
     37 H          62.2048   83.5805   14.8456 H       1  UNL1        0.2705
@<TRIPOS>BOND
     1    26    27    2
     2    27    25    1
     3    25    24    1
     4    24     1    1
     5     1    18    1
     6    18    19   ar
     7    19    20   ar
     8    20    21   ar
     9    21    22   ar
    10    22    23   ar
    11     1     2    1
    12     2     3    1
    13     3     4    1
    14     4     5    1
    15     5     6   am
    16     6     7    2
    17     6     8   am
    18     8    11    1
    19    11    12   ar
    20    12    13   ar
    21    13    14   ar
    22    14    15    1
    23    14    16   ar
    24    16    17   ar
    25     5     9    1
    26    27    28   am
    27    28    30    1
    28    30    31    2
    29    31    32    1
    30    32    33    1
    31    33    34    1
    32     9     1    1
    33    34    30    1
    34    23    18   ar
    35    17    11   ar
    36     8    10    1
    37    28    29    1
    38    32    35    1
    39    33    36    1
    40    34    37    1
@<TRIPOS>MOLECULE
*****
 37 40 0 0 0
SMALL
GASTEIGER

@<TRIPOS>ATOM
      1 C          63.1088   84.2133   13.6041 C.3     1  UNL1        0.0378
      2 C          63.1753   83.8685   15.0624 C.3     1  UNL1        0.0075
      3 C          63.5991   84.9056   16.0598 C.3     1  UNL1        0.0219
      4 C          63.9565   86.2876   15.5988 C.3     1  UNL1        0.0950
      5 N          63.8900   86.6324   14.1406 N.am    1  UNL1       -0.2637
      6 C          64.2474   88.0144   13.6796 C.2     1  UNL1        0.3077
      7 O          64.1809   88.3592   12.2213 O.2     1  UNL1       -0.2522
      8 N          64.6712   89.0515   14.6770 N.am    1  UNL1       -0.2681
      9 C          63.4662   85.5953   13.1432 C.3     1  UNL1        0.0989
     10 H          64.7148   88.8252   15.6341 H       1  UNL1        0.1564
     11 C          65.0286   90.4334   14.2160 C.ar    1  UNL1        0.0516
     12 C          65.9743   91.2723   15.0235 C.ar    1  UNL1        0.0156
     13 C          66.3317   92.6541   14.5626 C.ar    1  UNL1        0.0127
     14 C          65.7434   93.1973   13.2941 C.ar    1  UNL1        0.0578
     15 CL         66.1008   94.5793   12.8332 Cl      1  UNL1       -0.0822
     16 C          64.7977   92.3585   12.4867 C.ar    1  UNL1        0.0127
     17 C          64.4403   90.9765   12.9476 C.ar    1  UNL1        0.0156
     18 C          62.6761   82.7779   13.5523 C.ar    1  UNL1       -0.0212
     19 C          61.5229   82.3115   14.3904 C.ar    1  UNL1       -0.0042
     20 C          61.0903   80.8762   14.3385 C.ar    1  UNL1       -0.0003
     21 C          61.8110   79.9073   13.4487 C.ar    1  UNL1       -0.0000
     22 C          62.9642   80.3738   12.6106 C.ar    1  UNL1       -0.0003
     23 C          63.3968   81.8091   12.6625 C.ar    1  UNL1       -0.0042
     24 C          62.8921   84.0597   12.1278 C.3     1  UNL1        0.0169
     25 C          61.6522   84.6130   11.4902 C.3     1  UNL1        0.1035
     26 O          62.4505   86.2286    9.6187 O.2     1  UNL1       -0.2567
     27 C          61.6712   85.9815   10.8764 C.2     1  UNL1        0.2843
     28 N          60.9110   87.1029   11.5203 N.am    1  UNL1       -0.1730
     29 H          60.3996   86.9407   12.3457 H       1  UNL1        0.2541
     30 C          60.9300   88.4714   10.9064 C.2     1  UNL1        0.4137
     31 N          59.7756   89.4275   10.8477 N.2     1  UNL1        0.0207
     32 N          60.2389   90.6711   10.1486 N.pl3   1  UNL1       -0.1085
     33 N          61.6796   90.4836    9.7752 N.3     1  UNL1       -0.0823
     34 N          62.1067   89.1241   10.2436 N.pl3   1  UNL1       -0.1445
     35 H          59.6932   91.4701    9.9666 H       1  UNL1        0.2096
     36 H          62.2498   91.1998   10.2252 H       1  UNL1        0.1872
     37 H          63.0021   88.7296   10.1351 H       1  UNL1        0.2705
@<TRIPOS>BOND
     1    26    27    2
     2    27    25    1
     3    25    24    1
     4    24     1    1
     5     1    18    1
     6    18    19   ar
     7    19    20   ar
     8    20    21   ar
     9    21    22   ar
    10    22    23   ar
    11     1     2    1
    12     2     3    1
    13     3     4    1
    14     4     5    1
    15     5     6   am
    16     6     7    2
    17     6     8   am
    18     8    11    1
    19    11    12   ar
    20    12    13   ar
    21    13    14   ar
    22    14    15    1
    23    14    16   ar
    24    16    17   ar
    25     5     9    1
    26    27    28   am
    27    28    30    1
    28    30    31    2
    29    31    32    1
    30    32    33    1
    31    33    34    1
    32     9     1    1
    33    34    30    1
    34    23    18   ar
    35    17    11   ar
    36     8    10    1
    37    28    29    1
    38    32    35    1
    39    33    36    1
    40    34    37    1
