@<TRIPOS>MOLECULE
*****
 23 25 0 0 0
SMALL
GASTEIGER

@<TRIPOS>ATOM
      1 C          64.0167   88.2909   13.6989 C.ar    1  UNL1       -0.0214
      2 C          64.3476   89.7502   13.8027 C.ar    1  UNL1       -0.0042
      3 C          63.8009   90.7167   12.7943 C.ar    1  UNL1       -0.0003
      4 C          62.9231   90.2239   11.6823 C.ar    1  UNL1       -0.0000
      5 C          62.5921   88.7646   11.5785 C.ar    1  UNL1       -0.0003
      6 C          63.1389   87.7981   12.5869 C.ar    1  UNL1       -0.0042
      7 C          61.7143   88.2718   10.4665 C.ar    1  UNL1        0.0001
      8 C          61.6099   86.8015   10.1889 C.ar    1  UNL1        0.0023
      9 C          60.7321   86.3087    9.0768 C.ar    1  UNL1        0.0296
     10 C          59.9588   87.2862    8.2423 C.ar    1  UNL1        0.1401
     11 F          59.0810   86.7935    7.1303 F       1  UNL1       -0.2042
     12 C          60.0633   88.7566    8.5200 C.ar    1  UNL1        0.0296
     13 C          60.9411   89.2494    9.6320 C.ar    1  UNL1        0.0023
     14 C          64.5635   87.3243   14.7073 C.3     1  UNL1        0.0380
     15 C          63.0736   88.8551   17.1744 C.3     1  UNL1        0.0496
     16 C          62.9631   87.3954   16.8472 C.2     1  UNL1        0.0643
     17 N          62.1484   86.3832   17.5965 N.2     1  UNL1       -0.1566
     18 N          62.3298   85.0538   16.9256 N.2     1  UNL1       -0.1515
     19 C          63.2565   85.2446   15.7616 C.2     1  UNL1        0.0996
     20 C          63.6480   86.6918   15.7132 C.3     1  UNL1        0.0853
     21 C          63.7118   84.1758   14.8128 C.2     1  UNL1        0.0885
     22 O          63.6530   84.4122   13.3327 O.co2   1  UNL1       -0.5433
     23 O          64.2260   82.8706   15.3440 O.co2   1  UNL1       -0.5433
@<TRIPOS>UNITY_ATOM_ATTR
22 1
charge -1
@<TRIPOS>BOND
     1    15    16    1
     2    16    17    2
     3    17    18    1
     4    18    19    2
     5    19    21    1
     6    21    22   ar
     7    21    23   ar
     8    19    20    1
     9    20    14    1
    10    14     1    1
    11     1     2   ar
    12     2     3   ar
    13     3     4   ar
    14     4     5   ar
    15     5     7    1
    16     7     8   ar
    17     8     9   ar
    18     9    10   ar
    19    10    11    1
    20    10    12   ar
    21    12    13   ar
    22     5     6   ar
    23    20    16    1
    24     6     1   ar
    25    13     7   ar
@<TRIPOS>MOLECULE
*****
 23 25 0 0 0
SMALL
GASTEIGER

@<TRIPOS>ATOM
      1 C          63.8682   87.3785   13.4688 C.ar    1  UNL1       -0.0214
      2 C          63.1703   88.1016   12.3552 C.ar    1  UNL1       -0.0042
      3 C          62.3172   87.3396   11.3849 C.ar    1  UNL1       -0.0003
      4 C          62.1620   85.8545   11.5282 C.ar    1  UNL1       -0.0000
      5 C          62.8599   85.1315   12.6417 C.ar    1  UNL1       -0.0003
      6 C          63.7130   85.8935   13.6120 C.ar    1  UNL1       -0.0042
      7 C          62.7047   83.6464   12.7850 C.ar    1  UNL1        0.0001
      8 C          62.2621   83.0613   14.0933 C.ar    1  UNL1        0.0023
      9 C          62.1069   81.5762   14.2366 C.ar    1  UNL1        0.0296
     10 C          62.3944   80.6763   13.0715 C.ar    1  UNL1        0.1401
     11 F          62.2392   79.1912   13.2148 F       1  UNL1       -0.2042
     12 C          62.8370   81.2614   11.7632 C.ar    1  UNL1        0.0296
     13 C          62.9922   82.7464   11.6200 C.ar    1  UNL1        0.0023
     14 C          64.7213   88.1405   14.4392 C.3     1  UNL1        0.0380
     15 C          62.9351   88.0108   17.1672 C.3     1  UNL1        0.0496
     16 C          63.3305   89.2562   16.4306 C.2     1  UNL1        0.0643
     17 N          62.9742   90.6607   16.8186 N.2     1  UNL1       -0.1566
     18 N          63.5750   91.5883   15.8043 N.2     1  UNL1       -0.1515
     19 C          64.3026   90.7571   14.7896 C.2     1  UNL1        0.0996
     20 C          64.1515   89.3158   15.1766 C.3     1  UNL1        0.0853
     21 C          65.0501   91.2762   13.5972 C.2     1  UNL1        0.0885
     22 O          66.5091   91.6051   13.7116 O.co2   1  UNL1       -0.5433
     23 O          64.3387   91.4663   12.2904 O.co2   1  UNL1       -0.5433
@<TRIPOS>UNITY_ATOM_ATTR
22 1
charge -1
@<TRIPOS>BOND
     1    15    16    1
     2    16    17    2
     3    17    18    1
     4    18    19    2
     5    19    21    1
     6    21    22   ar
     7    21    23   ar
     8    19    20    1
     9    20    14    1
    10    14     1    1
    11     1     2   ar
    12     2     3   ar
    13     3     4   ar
    14     4     5   ar
    15     5     7    1
    16     7     8   ar
    17     8     9   ar
    18     9    10   ar
    19    10    11    1
    20    10    12   ar
    21    12    13   ar
    22     5     6   ar
    23    20    16    1
    24     6     1   ar
    25    13     7   ar
@<TRIPOS>MOLECULE
*****
 23 25 0 0 0
SMALL
GASTEIGER

@<TRIPOS>ATOM
      1 C          61.7356   87.1996   10.8486 C.ar    1  UNL1       -0.0214
      2 C          61.0297   87.8519    9.6970 C.ar    1  UNL1       -0.0042
      3 C          61.2403   89.3105    9.4174 C.ar    1  UNL1       -0.0003
      4 C          62.1566   90.1167   10.2894 C.ar    1  UNL1       -0.0000
      5 C          62.8624   89.4643   11.4410 C.ar    1  UNL1       -0.0003
      6 C          62.6519   88.0058   11.7206 C.ar    1  UNL1       -0.0042
      7 C          63.7788   90.2705   12.3130 C.ar    1  UNL1        0.0001
      8 C          64.3393   91.5691   11.8135 C.ar    1  UNL1        0.0023
      9 C          65.2556   92.3753   12.6855 C.ar    1  UNL1        0.0296
     10 C          65.6115   91.8829   14.0569 C.ar    1  UNL1        0.1401
     11 F          66.5278   92.6891   14.9289 F       1  UNL1       -0.2042
     12 C          65.0510   90.5843   14.5564 C.ar    1  UNL1        0.0296
     13 C          64.1347   89.7781   13.6844 C.ar    1  UNL1        0.0023
     14 C          61.5250   85.7409   11.1283 C.3     1  UNL1        0.0380
     15 C          63.0920   84.9288    8.3834 C.3     1  UNL1        0.0496
     16 C          63.3944   84.4096    9.7578 C.2     1  UNL1        0.0643
     17 N          64.4701   83.4260   10.1118 N.2     1  UNL1       -0.1566
     18 N          64.4146   83.1914   11.5923 N.2     1  UNL1       -0.1515
     19 C          63.3046   84.0300   12.1533 C.2     1  UNL1        0.0996
     20 C          62.6741   84.7829   11.0195 C.3     1  UNL1        0.0853
     21 C          62.8968   84.1029   13.5949 C.2     1  UNL1        0.0885
     22 O          63.0786   85.3790   14.3622 O.co2   1  UNL1       -0.5433
     23 O          62.3073   82.8998   14.2695 O.co2   1  UNL1       -0.5433
@<TRIPOS>UNITY_ATOM_ATTR
22 1
charge -1
@<TRIPOS>BOND
     1    15    16    1
     2    16    17    2
     3    17    18    1
     4    18    19    2
     5    19    21    1
     6    21    22   ar
     7    21    23   ar
     8    19    20    1
     9    20    14    1
    10    14     1    1
    11     1     2   ar
    12     2     3   ar
    13     3     4   ar
    14     4     5   ar
    15     5     7    1
    16     7     8   ar
    17     8     9   ar
    18     9    10   ar
    19    10    11    1
    20    10    12   ar
    21    12    13   ar
    22     5     6   ar
    23    20    16    1
    24     6     1   ar
    25    13     7   ar
@<TRIPOS>MOLECULE
*****
 23 25 0 0 0
SMALL
GASTEIGER

@<TRIPOS>ATOM
      1 C          63.4916   84.2927   10.9378 C.ar    1  UNL1       -0.0214
      2 C          63.6566   83.8857    9.5036 C.ar    1  UNL1       -0.0042
      3 C          63.0854   84.7402    8.4111 C.ar    1  UNL1       -0.0003
      4 C          62.3493   86.0017    8.7528 C.ar    1  UNL1       -0.0000
      5 C          62.1843   86.4087   10.1870 C.ar    1  UNL1       -0.0003
      6 C          62.7554   85.5542   11.2795 C.ar    1  UNL1       -0.0042
      7 C          61.4481   87.6702   10.5288 C.ar    1  UNL1        0.0001
      8 C          60.1339   87.6001   11.2483 C.ar    1  UNL1        0.0023
      9 C          59.3977   88.8616   11.5900 C.ar    1  UNL1        0.0296
     10 C          59.9759   90.1931   11.2123 C.ar    1  UNL1        0.1401
     11 F          59.2397   91.4546   11.5540 F       1  UNL1       -0.2042
     12 C          61.2902   90.2632   10.4928 C.ar    1  UNL1        0.0296
     13 C          62.0263   89.0017   10.1511 C.ar    1  UNL1        0.0023
     14 C          64.0628   83.4382   12.0304 C.3     1  UNL1        0.0380
     15 C          63.0194   80.5264   10.9900 C.3     1  UNL1        0.0496
     16 C          62.6946   81.1591   12.3107 C.2     1  UNL1        0.0643
     17 N          61.8331   80.5644   13.3850 N.2     1  UNL1       -0.1566
     18 N          61.7803   81.5353   14.5272 N.2     1  UNL1       -0.1515
     19 C          62.6091   82.7300   14.1588 C.2     1  UNL1        0.0996
     20 C          63.1742   82.4975   12.7889 C.3     1  UNL1        0.0853
     21 C          62.8334   83.9440   15.0107 C.2     1  UNL1        0.0885
     22 O          61.6737   84.8126   15.3989 O.co2   1  UNL1       -0.5433
     23 O          64.2175   84.2896   15.4745 O.co2   1  UNL1       -0.5433
@<TRIPOS>UNITY_ATOM_ATTR
22 1
charge -1
@<TRIPOS>BOND
     1    15    16    1
     2    16    17    2
     3    17    18    1
     4    18    19    2
     5    19    21    1
     6    21    22   ar
     7    21    23   ar
     8    19    20    1
     9    20    14    1
    10    14     1    1
    11     1     2   ar
    12     2     3   ar
    13     3     4   ar
    14     4     5   ar
    15     5     7    1
    16     7     8   ar
    17     8     9   ar
    18     9    10   ar
    19    10    11    1
    20    10    12   ar
    21    12    13   ar
    22     5     6   ar
    23    20    16    1
    24     6     1   ar
    25    13     7   ar
@<TRIPOS>MOLECULE
*****
 23 25 0 0 0
SMALL
GASTEIGER

@<TRIPOS>ATOM
      1 C          62.8310   89.0195   12.4542 C.ar    1  UNL1       -0.0214
      2 C          61.8103   90.1163   12.5261 C.ar    1  UNL1       -0.0042
      3 C          60.7113   90.1860   11.5076 C.ar    1  UNL1       -0.0003
      4 C          60.6330   89.1589   10.4172 C.ar    1  UNL1       -0.0000
      5 C          61.6536   88.0621   10.3454 C.ar    1  UNL1       -0.0003
      6 C          62.7526   87.9924   11.3638 C.ar    1  UNL1       -0.0042
      7 C          61.5753   87.0350    9.2550 C.ar    1  UNL1        0.0001
      8 C          60.3014   86.8556    8.4837 C.ar    1  UNL1        0.0023
      9 C          60.2231   85.8285    7.3934 C.ar    1  UNL1        0.0296
     10 C          61.4187   84.9808    7.0743 C.ar    1  UNL1        0.1401
     11 F          61.3404   83.9536    5.9839 F       1  UNL1       -0.2042
     12 C          62.6926   85.1602    7.8455 C.ar    1  UNL1        0.0296
     13 C          62.7709   86.1873    8.9359 C.ar    1  UNL1        0.0023
     14 C          63.9300   88.9498   13.4727 C.3     1  UNL1        0.0380
     15 C          62.6868   88.8447   16.4882 C.3     1  UNL1        0.0496
     16 C          63.4836   89.9722   15.9018 C.2     1  UNL1        0.0643
     17 N          63.8488   91.2494   16.5985 N.2     1  UNL1       -0.1566
     18 N          64.6460   92.0870   15.6430 N.2     1  UNL1       -0.1515
     19 C          64.7734   91.3275   14.3558 C.2     1  UNL1        0.0996
     20 C          64.0550   90.0205   14.5157 C.3     1  UNL1        0.0853
     21 C          65.4929   91.7933   13.1248 C.2     1  UNL1        0.0885
     22 O          66.9688   92.0570   13.1734 O.co2   1  UNL1       -0.5433
     23 O          64.7367   91.9955   11.8453 O.co2   1  UNL1       -0.5433
@<TRIPOS>UNITY_ATOM_ATTR
22 1
charge -1
@<TRIPOS>BOND
     1    15    16    1
     2    16    17    2
     3    17    18    1
     4    18    19    2
     5    19    21    1
     6    21    22   ar
     7    21    23   ar
     8    19    20    1
     9    20    14    1
    10    14     1    1
    11     1     2   ar
    12     2     3   ar
    13     3     4   ar
    14     4     5   ar
    15     5     7    1
    16     7     8   ar
    17     8     9   ar
    18     9    10   ar
    19    10    11    1
    20    10    12   ar
    21    12    13   ar
    22     5     6   ar
    23    20    16    1
    24     6     1   ar
    25    13     7   ar
@<TRIPOS>MOLECULE
*****
 23 25 0 0 0
SMALL
GASTEIGER

@<TRIPOS>ATOM
      1 C          62.9224   89.1485   12.3697 C.ar    1  UNL1       -0.0214
      2 C          62.0097   90.3382   12.3324 C.ar    1  UNL1       -0.0042
      3 C          60.9759   90.4567   11.2521 C.ar    1  UNL1       -0.0003
      4 C          60.8549   89.3856   10.2090 C.ar    1  UNL1       -0.0000
      5 C          61.7677   88.1959   10.2463 C.ar    1  UNL1       -0.0003
      6 C          62.8014   88.0773   11.3266 C.ar    1  UNL1       -0.0042
      7 C          61.6467   87.1248    9.2032 C.ar    1  UNL1        0.0001
      8 C          60.3518   86.9343    8.4704 C.ar    1  UNL1        0.0023
      9 C          60.2308   85.8632    7.4273 C.ar    1  UNL1        0.0296
     10 C          61.4047   84.9825    7.1170 C.ar    1  UNL1        0.1401
     11 F          61.2837   83.9114    6.0739 F       1  UNL1       -0.2042
     12 C          62.6996   85.1730    7.8497 C.ar    1  UNL1        0.0296
     13 C          62.8206   86.2441    8.8928 C.ar    1  UNL1        0.0023
     14 C          63.9563   89.0298   13.4501 C.3     1  UNL1        0.0380
     15 C          65.7966   91.6825   12.9743 C.3     1  UNL1        0.0496
     16 C          65.0000   91.3715   14.2066 C.2     1  UNL1        0.0643
     17 N          64.9095   92.2252   15.4366 N.2     1  UNL1       -0.1566
     18 N          64.0076   91.5335   16.4156 N.2     1  UNL1       -0.1515
     19 C          63.5408   90.2523   15.7905 C.2     1  UNL1        0.0996
     20 C          64.1541   90.1522   14.4254 C.3     1  UNL1        0.0853
     21 C          62.6219   89.2477   16.4202 C.2     1  UNL1        0.0885
     22 O          63.1654   88.2349   17.3839 O.co2   1  UNL1       -0.5433
     23 O          61.1596   89.2559   16.0862 O.co2   1  UNL1       -0.5433
@<TRIPOS>UNITY_ATOM_ATTR
22 1
charge -1
@<TRIPOS>BOND
     1    15    16    1
     2    16    17    2
     3    17    18    1
     4    18    19    2
     5    19    21    1
     6    21    22   ar
     7    21    23   ar
     8    19    20    1
     9    20    14    1
    10    14     1    1
    11     1     2   ar
    12     2     3   ar
    13     3     4   ar
    14     4     5   ar
    15     5     7    1
    16     7     8   ar
    17     8     9   ar
    18     9    10   ar
    19    10    11    1
    20    10    12   ar
    21    12    13   ar
    22     5     6   ar
    23    20    16    1
    24     6     1   ar
    25    13     7   ar
@<TRIPOS>MOLECULE
*****
 23 25 0 0 0
SMALL
GASTEIGER

@<TRIPOS>ATOM
      1 C          62.1169   88.1205   11.1829 C.ar    1  UNL1       -0.0214
      2 C          61.9900   88.1138    9.6884 C.ar    1  UNL1       -0.0042
      3 C          62.1603   86.8327    8.9270 C.ar    1  UNL1       -0.0003
      4 C          62.4574   85.5583    9.6602 C.ar    1  UNL1       -0.0000
      5 C          62.5843   85.5650   11.1548 C.ar    1  UNL1       -0.0003
      6 C          62.4140   86.8461   11.9161 C.ar    1  UNL1       -0.0042
      7 C          62.8814   84.2906   11.8880 C.ar    1  UNL1        0.0001
      8 C          63.2758   83.0608   11.1250 C.ar    1  UNL1        0.0023
      9 C          63.5729   81.7864   11.8582 C.ar    1  UNL1        0.0296
     10 C          63.4756   81.7417   13.3544 C.ar    1  UNL1        0.1401
     11 F          63.7728   80.4673   14.0876 F       1  UNL1       -0.2042
     12 C          63.0813   82.9715   14.1173 C.ar    1  UNL1        0.0296
     13 C          62.7841   84.2459   13.3841 C.ar    1  UNL1        0.0023
     14 C          61.9466   89.4016   11.9444 C.3     1  UNL1        0.0380
     15 C          63.4257   91.6284   10.0727 C.3     1  UNL1        0.0496
     16 C          63.8289   91.2376   11.4636 C.2     1  UNL1        0.0643
     17 N          64.9828   91.8017   12.2384 N.2     1  UNL1       -0.1566
     18 N          65.0160   91.1267   13.5776 N.2     1  UNL1       -0.1515
     19 C          63.8827   90.1455   13.6304 C.2     1  UNL1        0.0996
     20 C          63.1490   90.2140   12.3239 C.3     1  UNL1        0.0853
     21 C          63.5428   89.2526   14.7868 C.2     1  UNL1        0.0885
     22 O          64.1583   87.8884   14.8872 O.co2   1  UNL1       -0.5433
     23 O          62.5873   89.7238   15.8428 O.co2   1  UNL1       -0.5433
@<TRIPOS>UNITY_ATOM_ATTR
22 1
charge -1
@<TRIPOS>BOND
     1    15    16    1
     2    16    17    2
     3    17    18    1
     4    18    19    2
     5    19    21    1
     6    21    22   ar
     7    21    23   ar
     8    19    20    1
     9    20    14    1
    10    14     1    1
    11     1     2   ar
    12     2     3   ar
    13     3     4   ar
    14     4     5   ar
    15     5     7    1
    16     7     8   ar
    17     8     9   ar
    18     9    10   ar
    19    10    11    1
    20    10    12   ar
    21    12    13   ar
    22     5     6   ar
    23    20    16    1
    24     6     1   ar
    25    13     7   ar
@<TRIPOS>MOLECULE
*****
 23 25 0 0 0
SMALL
GASTEIGER

@<TRIPOS>ATOM
      1 C          64.2145   88.1294   13.9193 C.ar    1  UNL1       -0.0214
      2 C          64.5542   89.5699   14.1628 C.ar    1  UNL1       -0.0042
      3 C          64.0175   90.6318   13.2493 C.ar    1  UNL1       -0.0003
      4 C          63.1410   90.2530   12.0924 C.ar    1  UNL1       -0.0000
      5 C          62.8013   88.8124   11.8490 C.ar    1  UNL1       -0.0003
      6 C          63.3380   87.7506   12.7624 C.ar    1  UNL1       -0.0042
      7 C          61.9248   88.4337   10.6921 C.ar    1  UNL1        0.0001
      8 C          61.9382   87.0276   10.1699 C.ar    1  UNL1        0.0023
      9 C          61.0617   86.6489    9.0130 C.ar    1  UNL1        0.0296
     10 C          60.1719   87.6762    8.3784 C.ar    1  UNL1        0.1401
     11 F          59.2955   87.2974    7.2215 F       1  UNL1       -0.2042
     12 C          60.1586   89.0822    8.9006 C.ar    1  UNL1        0.0296
     13 C          61.0350   89.4610   10.0575 C.ar    1  UNL1        0.0023
     14 C          64.7512   87.0675   14.8328 C.3     1  UNL1        0.0380
     15 C          64.5567   84.1711   13.3418 C.3     1  UNL1        0.0496
     16 C          63.7873   84.5893   14.5596 C.2     1  UNL1        0.0643
     17 N          62.7935   83.7495   15.3060 N.2     1  UNL1       -0.1566
     18 N          62.2687   84.5619   16.4526 N.2     1  UNL1       -0.1515
     19 C          62.9382   85.9036   16.4149 C.2     1  UNL1        0.0996
     20 C          63.8768   85.9206   15.2450 C.3     1  UNL1        0.0853
     21 C          62.7093   87.0306   17.3780 C.2     1  UNL1        0.0885
     22 O          62.5473   88.4318   16.8680 O.co2   1  UNL1       -0.5433
     23 O          62.6423   86.7563   18.8513 O.co2   1  UNL1       -0.5433
@<TRIPOS>UNITY_ATOM_ATTR
22 1
charge -1
@<TRIPOS>BOND
     1    15    16    1
     2    16    17    2
     3    17    18    1
     4    18    19    2
     5    19    21    1
     6    21    22   ar
     7    21    23   ar
     8    19    20    1
     9    20    14    1
    10    14     1    1
    11     1     2   ar
    12     2     3   ar
    13     3     4   ar
    14     4     5   ar
    15     5     7    1
    16     7     8   ar
    17     8     9   ar
    18     9    10   ar
    19    10    11    1
    20    10    12   ar
    21    12    13   ar
    22     5     6   ar
    23    20    16    1
    24     6     1   ar
    25    13     7   ar
@<TRIPOS>MOLECULE
*****
 23 25 0 0 0
SMALL
GASTEIGER

@<TRIPOS>ATOM
      1 C          63.1268   87.3841   12.2994 C.ar    1  UNL1       -0.0214
      2 C          63.8823   87.9479   13.4661 C.ar    1  UNL1       -0.0042
      3 C          64.3376   87.0433   14.5726 C.ar    1  UNL1       -0.0003
      4 C          64.0374   85.5749   14.5123 C.ar    1  UNL1       -0.0000
      5 C          63.2819   85.0111   13.3456 C.ar    1  UNL1       -0.0003
      6 C          62.8266   85.9157   12.2391 C.ar    1  UNL1       -0.0042
      7 C          62.9817   83.5427   13.2854 C.ar    1  UNL1        0.0001
      8 C          62.3225   82.8636   14.4492 C.ar    1  UNL1        0.0023
      9 C          62.0223   81.3952   14.3890 C.ar    1  UNL1        0.0296
     10 C          62.3812   80.6058   13.1650 C.ar    1  UNL1        0.1401
     11 F          62.0810   79.1374   13.1048 F       1  UNL1       -0.2042
     12 C          63.0404   81.2849   12.0013 C.ar    1  UNL1        0.0296
     13 C          63.3406   82.7533   12.0615 C.ar    1  UNL1        0.0023
     14 C          62.6715   88.2887   11.1928 C.3     1  UNL1        0.0380
     15 C          62.7933   86.1105    8.7658 C.3     1  UNL1        0.0496
     16 C          61.5813   86.8804    9.1994 C.2     1  UNL1        0.0643
     17 N          60.2124   86.7843    8.5936 N.2     1  UNL1       -0.1566
     18 N          59.3104   87.7262    9.3348 N.2     1  UNL1       -0.1515
     19 C          60.1218   88.4044   10.3987 C.2     1  UNL1        0.0996
     20 C          61.5253   87.8816   10.3150 C.3     1  UNL1        0.0853
     21 C          59.6181   89.4259   11.3748 C.2     1  UNL1        0.0885
     22 O          59.2284   89.0093   12.7621 O.co2   1  UNL1       -0.5433
     23 O          59.5041   90.8640   10.9637 O.co2   1  UNL1       -0.5433
@<TRIPOS>UNITY_ATOM_ATTR
22 1
charge -1
@<TRIPOS>BOND
     1    15    16    1
     2    16    17    2
     3    17    18    1
     4    18    19    2
     5    19    21    1
     6    21    22   ar
     7    21    23   ar
     8    19    20    1
     9    20    14    1
    10    14     1    1
    11     1     2   ar
    12     2     3   ar
    13     3     4   ar
    14     4     5   ar
    15     5     7    1
    16     7     8   ar
    17     8     9   ar
    18     9    10   ar
    19    10    11    1
    20    10    12   ar
    21    12    13   ar
    22     5     6   ar
    23    20    16    1
    24     6     1   ar
    25    13     7   ar
