@<TRIPOS>MOLECULE
*****
 32 35 0 0 0
SMALL
GASTEIGER

@<TRIPOS>ATOM
      1 N          65.0421   90.9233   12.7091 N.am    1  UNL1       -0.2681
      2 C          63.9847   90.2409   11.8929 C.2     1  UNL1        0.3077
      3 O          63.2482   91.0032   10.8315 O.2     1  UNL1       -0.2522
      4 N          63.6637   88.7963   12.1381 N.am    1  UNL1       -0.2640
      5 C          64.3130   87.9099   13.1592 C.3     1  UNL1        0.0950
      6 C          63.6876   86.5503   13.0574 C.3     1  UNL1        0.0219
      7 C          63.7024   85.1621   13.6255 C.3     1  UNL1        0.0061
      8 C          62.6758   84.3503   12.8926 C.3     1  UNL1        0.0224
      9 C          62.0265   85.2368   11.8715 C.3     1  UNL1        0.0061
     10 C          62.6519   86.5964   11.9733 C.3     1  UNL1        0.0219
     11 C          62.6371   87.9846   11.4052 C.3     1  UNL1        0.0950
     12 H          65.5255   90.4230   13.4058 H       1  UNL1        0.1564
     13 C          65.9379   93.2061   13.5672 C.ar    1  UNL1        0.0283
     14 C          66.2589   94.6507   13.3220 C.ar    1  UNL1        0.0138
     15 C          66.0051   95.2570   11.9737 C.ar    1  UNL1        0.0578
     16 CL         66.3261   96.7016   11.7285 Cl      1  UNL1       -0.0822
     17 C          65.4303   94.4188   10.8705 C.ar    1  UNL1        0.0127
     18 C          65.1093   92.9742   11.1157 C.ar    1  UNL1        0.0156
     19 C          65.3631   92.3679   12.4640 C.ar    1  UNL1        0.0527
     20 O          67.5797   92.5898   15.4842 O.co2   1  UNL1       -0.5446
     21 C          66.1917   92.5998   14.9155 C.2     1  UNL1        0.0741
     22 O          65.0574   92.0035   15.6952 O.co2   1  UNL1       -0.5446
     23 C          62.3548   82.9058   13.1377 C.ar    1  UNL1       -0.0186
     24 C          61.4171   82.5231   14.2442 C.ar    1  UNL1       -0.0043
     25 C          61.0961   81.0785   14.4894 C.ar    1  UNL1       -0.0003
     26 C          61.7128   80.0165   13.6281 C.ar    1  UNL1       -0.0001
     27 C          62.6506   80.3992   12.5215 C.ar    1  UNL1        0.0035
     28 C          62.9716   81.8437   12.2764 C.ar    1  UNL1        0.0675
     29 C          63.9093   82.2264   11.1700 C.3     1  UNL1        0.4183
     30 F          64.8470   82.6091   10.0635 F       1  UNL1       -0.1659
     31 F          62.7997   82.0647   10.1737 F       1  UNL1       -0.1659
     32 F          65.0189   82.3881   12.1663 F       1  UNL1       -0.1659
@<TRIPOS>UNITY_ATOM_ATTR
20 1
charge -1
@<TRIPOS>BOND
     1    20    21   ar
     2    21    22   ar
     3    21    13    1
     4    13    14   ar
     5    14    15   ar
     6    15    16    1
     7    15    17   ar
     8    17    18   ar
     9    18    19   ar
    10    19     1    1
    11     1     2   am
    12     2     3    2
    13     2     4   am
    14     4     5    1
    15     6     5    1
    16     6     7    1
    17     7     8    1
    18     8    23    1
    19    23    24   ar
    20    24    25   ar
    21    25    26   ar
    22    26    27   ar
    23    27    28   ar
    24    28    29    1
    25    29    30    1
    26    29    31    1
    27    29    32    1
    28     8     9    1
    29    10     9    1
    30    10    11    1
    31    19    13   ar
    32    11     4    1
    33    10     6    1
    34    28    23   ar
    35     1    12    1
@<TRIPOS>MOLECULE
*****
 32 35 0 0 0
SMALL
GASTEIGER

@<TRIPOS>ATOM
      1 N          63.4413   86.3575   13.4343 N.am    1  UNL1       -0.2681
      2 C          62.8771   87.1986   12.3279 C.2     1  UNL1        0.3077
      3 O          61.7495   86.6755   11.4885 O.2     1  UNL1       -0.2522
      4 N          63.4407   88.5629   12.0609 N.am    1  UNL1       -0.2640
      5 C          64.5621   89.2162   12.8129 C.3     1  UNL1        0.0950
      6 C          64.7962   90.5704   12.2118 C.3     1  UNL1        0.0219
      7 C          65.6339   91.8111   12.3051 C.3     1  UNL1        0.0061
      8 C          65.1750   92.7616   11.2392 C.3     1  UNL1        0.0224
      9 C          64.0534   92.1082   10.4872 C.3     1  UNL1        0.0061
     10 C          63.8194   90.7540   11.0883 C.3     1  UNL1        0.0219
     11 C          62.9816   89.5133   10.9951 C.3     1  UNL1        0.0950
     12 H          64.1814   86.7008   13.9853 H       1  UNL1        0.1564
     13 C          62.4080   84.6323   15.0794 C.ar    1  UNL1        0.0283
     14 C          61.8446   83.2680   15.3464 C.ar    1  UNL1        0.0138
     15 C          61.7509   82.2647   14.2353 C.ar    1  UNL1        0.0578
     16 CL         61.1875   80.9004   14.5023 Cl      1  UNL1       -0.0822
     17 C          62.2207   82.6256   12.8573 C.ar    1  UNL1        0.0127
     18 C          62.7841   83.9898   12.5903 C.ar    1  UNL1        0.0156
     19 C          62.8778   84.9932   13.7014 C.ar    1  UNL1        0.0527
     20 O          61.2812   85.9873   16.9884 O.co2   1  UNL1       -0.5446
     21 C          62.5017   85.6357   16.1905 C.2     1  UNL1        0.0741
     22 O          63.8159   86.2874   16.5037 O.co2   1  UNL1       -0.5446
     23 C          65.7384   94.1258   10.9722 C.ar    1  UNL1       -0.0186
     24 C          65.0843   95.3372   11.5678 C.ar    1  UNL1       -0.0043
     25 C          65.6478   96.7015   11.3008 C.ar    1  UNL1       -0.0003
     26 C          66.8654   96.8543   10.4382 C.ar    1  UNL1       -0.0001
     27 C          67.5196   95.6429    9.8427 C.ar    1  UNL1        0.0035
     28 C          66.9561   94.2787   10.1096 C.ar    1  UNL1        0.0675
     29 C          67.6102   93.0673    9.5141 C.3     1  UNL1        0.4183
     30 F          68.2643   91.8560    8.9186 F       1  UNL1       -0.1659
     31 F          67.2712   93.5605    8.1387 F       1  UNL1       -0.1659
     32 F          67.9492   92.5742   10.8896 F       1  UNL1       -0.1659
@<TRIPOS>UNITY_ATOM_ATTR
20 1
charge -1
@<TRIPOS>BOND
     1    20    21   ar
     2    21    22   ar
     3    21    13    1
     4    13    14   ar
     5    14    15   ar
     6    15    16    1
     7    15    17   ar
     8    17    18   ar
     9    18    19   ar
    10    19     1    1
    11     1     2   am
    12     2     3    2
    13     2     4   am
    14     4     5    1
    15     6     5    1
    16     6     7    1
    17     7     8    1
    18     8    23    1
    19    23    24   ar
    20    24    25   ar
    21    25    26   ar
    22    26    27   ar
    23    27    28   ar
    24    28    29    1
    25    29    30    1
    26    29    31    1
    27    29    32    1
    28     8     9    1
    29    10     9    1
    30    10    11    1
    31    19    13   ar
    32    11     4    1
    33    10     6    1
    34    28    23   ar
    35     1    12    1
@<TRIPOS>MOLECULE
*****
 32 35 0 0 0
SMALL
GASTEIGER

@<TRIPOS>ATOM
      1 N          63.0368   86.2965   12.6282 N.am    1  UNL1       -0.2681
      2 C          63.6764   87.2730   13.5702 C.2     1  UNL1        0.3077
      3 O          63.8987   86.8956   15.0048 O.2     1  UNL1       -0.2522
      4 N          64.0936   88.6270   13.0775 N.am    1  UNL1       -0.2640
      5 C          63.9363   89.1430   11.6779 C.3     1  UNL1        0.0950
      6 C          64.4869   90.5375   11.6334 C.3     1  UNL1        0.0219
      7 C          64.7299   91.7183   10.7409 C.3     1  UNL1        0.0061
      8 C          65.3778   92.7941   11.5613 C.3     1  UNL1        0.0224
      9 C          65.5351   92.2780   12.9610 C.3     1  UNL1        0.0061
     10 C          64.9845   90.8835   13.0055 C.3     1  UNL1        0.0219
     11 C          64.7415   89.7026   13.8980 C.3     1  UNL1        0.0950
     12 H          62.8909   86.5442   11.6867 H       1  UNL1        0.1564
     13 C          62.7691   83.7426   12.2332 C.ar    1  UNL1        0.0283
     14 C          62.3518   82.3887   12.7259 C.ar    1  UNL1        0.0138
     15 C          61.7850   82.2346   14.1061 C.ar    1  UNL1        0.0578
     16 CL         61.3677   80.8807   14.5988 Cl      1  UNL1       -0.0822
     17 C          61.6354   83.4345   14.9937 C.ar    1  UNL1        0.0127
     18 C          62.0527   84.7885   14.5010 C.ar    1  UNL1        0.0156
     19 C          62.6195   84.9425   13.1208 C.ar    1  UNL1        0.0527
     20 O          62.8499   85.0007    9.9615 O.co2   1  UNL1       -0.5446
     21 C          63.3359   83.8966   10.8530 C.2     1  UNL1        0.0741
     22 O          64.3887   82.9465   10.3643 O.co2   1  UNL1       -0.5446
     23 C          65.7950   94.1480   11.0687 C.ar    1  UNL1       -0.0186
     24 C          65.0681   95.3735   11.5375 C.ar    1  UNL1       -0.0043
     25 C          65.4853   96.7275   11.0449 C.ar    1  UNL1       -0.0003
     26 C          66.6295   96.8559   10.0835 C.ar    1  UNL1       -0.0001
     27 C          67.3564   95.6304    9.6147 C.ar    1  UNL1        0.0035
     28 C          66.9392   94.2765   10.1073 C.ar    1  UNL1        0.0675
     29 C          67.6661   93.0510    9.6385 C.3     1  UNL1        0.4183
     30 F          68.3930   91.8255    9.1697 F       1  UNL1       -0.1659
     31 F          67.8610   92.6219   11.0625 F       1  UNL1       -0.1659
     32 F          67.4713   93.4801    8.2145 F       1  UNL1       -0.1659
@<TRIPOS>UNITY_ATOM_ATTR
20 1
charge -1
@<TRIPOS>BOND
     1    20    21   ar
     2    21    22   ar
     3    21    13    1
     4    13    14   ar
     5    14    15   ar
     6    15    16    1
     7    15    17   ar
     8    17    18   ar
     9    18    19   ar
    10    19     1    1
    11     1     2   am
    12     2     3    2
    13     2     4   am
    14     4     5    1
    15     6     5    1
    16     6     7    1
    17     7     8    1
    18     8    23    1
    19    23    24   ar
    20    24    25   ar
    21    25    26   ar
    22    26    27   ar
    23    27    28   ar
    24    28    29    1
    25    29    30    1
    26    29    31    1
    27    29    32    1
    28     8     9    1
    29    10     9    1
    30    10    11    1
    31    19    13   ar
    32    11     4    1
    33    10     6    1
    34    28    23   ar
    35     1    12    1
@<TRIPOS>MOLECULE
*****
 32 35 0 0 0
SMALL
GASTEIGER

@<TRIPOS>ATOM
      1 N          65.1049   91.0830   12.6248 N.am    1  UNL1       -0.2681
      2 C          64.0414   90.3990   11.8179 C.2     1  UNL1        0.3077
      3 O          63.2992   91.1582   10.7583 O.2     1  UNL1       -0.2522
      4 N          63.7201   88.9558   12.0706 N.am    1  UNL1       -0.2640
      5 C          64.3746   88.0723   13.0910 C.3     1  UNL1        0.0950
      6 C          63.7468   86.7132   12.9983 C.3     1  UNL1        0.0219
      7 C          63.7633   85.3272   13.5716 C.3     1  UNL1        0.0061
      8 C          62.7310   84.5140   12.8483 C.3     1  UNL1        0.0224
      9 C          62.0765   85.3975   11.8279 C.3     1  UNL1        0.0061
     10 C          62.7043   86.7566   11.9206 C.3     1  UNL1        0.0219
     11 C          62.6877   88.1426   11.3473 C.3     1  UNL1        0.0950
     12 H          65.5920   90.5847   13.3202 H       1  UNL1        0.1564
     13 C          66.0093   93.3678   13.4684 C.ar    1  UNL1        0.0283
     14 C          66.3307   94.8110   13.2156 C.ar    1  UNL1        0.0138
     15 C          66.0690   95.4126   11.8667 C.ar    1  UNL1        0.0578
     16 CL         66.3904   96.8558   11.6140 Cl      1  UNL1       -0.0822
     17 C          65.4860   94.5710   10.7704 C.ar    1  UNL1        0.0127
     18 C          65.1647   93.1278   11.0232 C.ar    1  UNL1        0.0156
     19 C          65.4263   92.5262   12.3721 C.ar    1  UNL1        0.0527
     20 O          67.6771   92.4662   15.2448 O.co2   1  UNL1       -0.5446
     21 C          66.2709   92.7663   14.8173 C.2     1  UNL1        0.0741
     22 O          65.1264   92.4647   15.7388 O.co2   1  UNL1       -0.5446
     23 C          62.4097   83.0708   13.1010 C.ar    1  UNL1       -0.0186
     24 C          62.3257   82.1090   11.9530 C.ar    1  UNL1       -0.0043
     25 C          62.0044   80.6657   12.2057 C.ar    1  UNL1       -0.0003
     26 C          61.7670   80.1843   13.6064 C.ar    1  UNL1       -0.0001
     27 C          61.8510   81.1462   14.7544 C.ar    1  UNL1        0.0035
     28 C          62.1723   82.5893   14.5017 C.ar    1  UNL1        0.0675
     29 C          62.2563   83.5512   15.6497 C.3     1  UNL1        0.4183
     30 F          62.3403   84.5130   16.7976 F       1  UNL1       -0.1659
     31 F          60.9052   84.0959   15.2921 F       1  UNL1       -0.1659
     32 F          63.6073   83.0064   16.0072 F       1  UNL1       -0.1659
@<TRIPOS>UNITY_ATOM_ATTR
20 1
charge -1
@<TRIPOS>BOND
     1    20    21   ar
     2    21    22   ar
     3    21    13    1
     4    13    14   ar
     5    14    15   ar
     6    15    16    1
     7    15    17   ar
     8    17    18   ar
     9    18    19   ar
    10    19     1    1
    11     1     2   am
    12     2     3    2
    13     2     4   am
    14     4     5    1
    15     6     5    1
    16     6     7    1
    17     7     8    1
    18     8    23    1
    19    23    24   ar
    20    24    25   ar
    21    25    26   ar
    22    26    27   ar
    23    27    28   ar
    24    28    29    1
    25    29    30    1
    26    29    31    1
    27    29    32    1
    28     8     9    1
    29    10     9    1
    30    10    11    1
    31    19    13   ar
    32    11     4    1
    33    10     6    1
    34    28    23   ar
    35     1    12    1
