@<TRIPOS>MOLECULE
*****
 24 26 0 0 0
SMALL
GASTEIGER

@<TRIPOS>ATOM
      1 O          63.8457   90.5120   13.8622 O.2     1  UNL1       -0.2872
      2 C          63.7651   90.7445   12.3825 C.2     1  UNL1        0.1877
      3 C          64.4940   91.8081   11.6161 C.2     1  UNL1        0.0167
      4 C          65.4314   92.8261   12.1949 C.2     1  UNL1       -0.0011
      5 C          64.1209   91.6751   10.1694 C.3     1  UNL1        0.0344
      6 C          63.1615   90.5292   10.0416 C.3     1  UNL1        0.0344
      7 C          62.9416   89.9540   11.4094 C.2     1  UNL1        0.0167
      8 C          62.0539   88.7924   11.7452 C.2     1  UNL1       -0.0011
      9 C          66.0906   93.8332   11.2997 C.ar    1  UNL1       -0.0000
     10 C          65.8294   95.2970   11.4974 C.ar    1  UNL1        0.0031
     11 C          66.4885   96.3040   10.6023 C.ar    1  UNL1        0.0366
     12 C          67.4089   95.8473    9.5094 C.ar    1  UNL1        0.1337
     13 O          68.0681   96.8544    8.6143 O.3     1  UNL1       -0.5055
     14 C          67.6701   94.3835    9.3117 C.ar    1  UNL1        0.0366
     15 C          67.0109   93.3765   10.2069 C.ar    1  UNL1        0.0031
     16 H          67.9049   97.7688    8.7378 H       1  UNL1        0.2922
     17 C          61.2870   88.0963   10.6601 C.ar    1  UNL1       -0.0000
     18 C          61.6610   86.7017   10.2536 C.ar    1  UNL1        0.0031
     19 C          60.8941   86.0056    9.1686 C.ar    1  UNL1        0.0366
     20 C          59.7532   86.7040    8.4901 C.ar    1  UNL1        0.1337
     21 O          58.9863   86.0080    7.4051 O.3     1  UNL1       -0.5055
     22 C          59.3792   88.0986    8.8966 C.ar    1  UNL1        0.0366
     23 C          60.1460   88.7947    9.9816 C.ar    1  UNL1        0.0031
     24 H          59.2199   85.1368    7.1511 H       1  UNL1        0.2922
@<TRIPOS>BOND
     1     1     2    2
     2     2     3    1
     3     3     4    2
     4     4     9    1
     5     9    10   ar
     6    10    11   ar
     7    11    12   ar
     8    12    13    1
     9    12    14   ar
    10    14    15   ar
    11     3     5    1
    12     5     6    1
    13     6     7    1
    14     7     8    2
    15     8    17    1
    16    17    18   ar
    17    18    19   ar
    18    19    20   ar
    19    20    21    1
    20    20    22   ar
    21    22    23   ar
    22     7     2    1
    23    23    17   ar
    24    15     9   ar
    25    13    16    1
    26    21    24    1
@<TRIPOS>MOLECULE
*****
 24 26 0 0 0
SMALL
GASTEIGER

@<TRIPOS>ATOM
      1 O          63.8414   90.5211   13.8732 O.2     1  UNL1       -0.2872
      2 C          63.7645   90.7504   12.3929 C.2     1  UNL1        0.1877
      3 C          62.9440   89.9574   11.4193 C.2     1  UNL1        0.0167
      4 C          62.0563   88.7958   11.7552 C.2     1  UNL1       -0.0011
      5 C          63.1669   90.5299   10.0509 C.3     1  UNL1        0.0344
      6 C          64.1252   91.6768   10.1787 C.3     1  UNL1        0.0344
      7 C          64.4945   91.8130   11.6262 C.2     1  UNL1        0.0167
      8 C          65.4298   92.8329   12.2053 C.2     1  UNL1       -0.0011
      9 C          61.2926   88.0970   10.6696 C.ar    1  UNL1       -0.0000
     10 C          60.1598   88.7971    9.9795 C.ar    1  UNL1        0.0031
     11 C          59.3961   88.0983    8.8939 C.ar    1  UNL1        0.0366
     12 C          59.7654   86.6992    8.4985 C.ar    1  UNL1        0.1337
     13 O          59.0017   86.0004    7.4129 O.3     1  UNL1       -0.5055
     14 C          60.8983   85.9991    9.1886 C.ar    1  UNL1        0.0366
     15 C          61.6619   86.6979   10.2742 C.ar    1  UNL1        0.0031
     16 H          58.2940   86.4377    6.9818 H       1  UNL1        0.2922
     17 C          66.0905   93.8386   11.3098 C.ar    1  UNL1       -0.0000
     18 C          65.8190   95.3020   11.4967 C.ar    1  UNL1        0.0031
     19 C          66.4797   96.3078   10.6012 C.ar    1  UNL1        0.0366
     20 C          67.4118   95.8502    9.5188 C.ar    1  UNL1        0.1337
     21 O          68.0725   96.8560    8.6233 O.3     1  UNL1       -0.5055
     22 C          67.6833   94.3869    9.3318 C.ar    1  UNL1        0.0366
     23 C          67.0227   93.3811   10.2273 C.ar    1  UNL1        0.0031
     24 H          67.9029   97.7701    8.7400 H       1  UNL1        0.2922
@<TRIPOS>BOND
     1     1     2    2
     2     2     3    1
     3     3     4    2
     4     4     9    1
     5     9    10   ar
     6    10    11   ar
     7    11    12   ar
     8    12    13    1
     9    12    14   ar
    10    14    15   ar
    11     3     5    1
    12     5     6    1
    13     6     7    1
    14     7     8    2
    15     8    17    1
    16    17    18   ar
    17    18    19   ar
    18    19    20   ar
    19    20    21    1
    20    20    22   ar
    21    22    23   ar
    22     7     2    1
    23    23    17   ar
    24    15     9   ar
    25    13    16    1
    26    21    24    1
@<TRIPOS>MOLECULE
*****
 24 26 0 0 0
SMALL
GASTEIGER

@<TRIPOS>ATOM
      1 O          61.9627   88.4029   10.6818 O.2     1  UNL1       -0.2872
      2 C          62.7789   87.9919   11.8712 C.2     1  UNL1        0.1877
      3 C          63.5784   88.9069   12.7507 C.2     1  UNL1        0.0167
      4 C          63.7021   90.3936   12.5952 C.2     1  UNL1       -0.0011
      5 C          64.2325   88.0740   13.8131 C.3     1  UNL1        0.0344
      6 C          63.8373   86.6443   13.5902 C.3     1  UNL1        0.0344
      7 C          62.9389   86.5936   12.3900 C.2     1  UNL1        0.0167
      8 C          62.3108   85.3608   11.8104 C.2     1  UNL1       -0.0011
      9 C          64.5420   91.1811   13.5568 C.ar    1  UNL1       -0.0000
     10 C          65.6892   92.0041   13.0507 C.ar    1  UNL1        0.0031
     11 C          66.5291   92.7915   14.0123 C.ar    1  UNL1        0.0366
     12 C          66.2216   92.7558   15.4800 C.ar    1  UNL1        0.1337
     13 O          67.0614   93.5433   16.4416 O.3     1  UNL1       -0.5055
     14 C          65.0743   91.9327   15.9861 C.ar    1  UNL1        0.0366
     15 C          64.2345   91.1454   15.0245 C.ar    1  UNL1        0.0031
     16 H          67.7781   94.0574   16.1254 H       1  UNL1        0.2922
     17 C          62.5632   84.0233   12.4406 C.ar    1  UNL1       -0.0000
     18 C          63.0393   82.8758   11.5997 C.ar    1  UNL1        0.0031
     19 C          63.2917   81.5383   12.2299 C.ar    1  UNL1        0.0366
     20 C          63.0681   81.3480   13.7008 C.ar    1  UNL1        0.1337
     21 O          63.3205   80.0104   14.3310 O.3     1  UNL1       -0.5055
     22 C          62.5920   82.4953   14.5416 C.ar    1  UNL1        0.0366
     23 C          62.3396   83.8329   13.9115 C.ar    1  UNL1        0.0031
     24 H          63.6179   79.2937   13.8058 H       1  UNL1        0.2922
@<TRIPOS>BOND
     1     1     2    2
     2     2     3    1
     3     3     4    2
     4     4     9    1
     5     9    10   ar
     6    10    11   ar
     7    11    12   ar
     8    12    13    1
     9    12    14   ar
    10    14    15   ar
    11     3     5    1
    12     5     6    1
    13     6     7    1
    14     7     8    2
    15     8    17    1
    16    17    18   ar
    17    18    19   ar
    18    19    20   ar
    19    20    21    1
    20    20    22   ar
    21    22    23   ar
    22     7     2    1
    23    23    17   ar
    24    15     9   ar
    25    13    16    1
    26    21    24    1
@<TRIPOS>MOLECULE
*****
 24 26 0 0 0
SMALL
GASTEIGER

@<TRIPOS>ATOM
      1 O          61.9617   88.4074   10.6805 O.2     1  UNL1       -0.2872
      2 C          62.7779   87.9949   11.8694 C.2     1  UNL1        0.1877
      3 C          62.9364   86.5962   12.3877 C.2     1  UNL1        0.0167
      4 C          62.3066   85.3645   11.8079 C.2     1  UNL1       -0.0011
      5 C          63.8354   86.6455   13.5875 C.3     1  UNL1        0.0344
      6 C          64.2324   88.0747   13.8108 C.3     1  UNL1        0.0344
      7 C          63.5788   88.9086   12.7489 C.2     1  UNL1        0.0167
      8 C          63.7042   90.3953   12.5938 C.2     1  UNL1       -0.0011
      9 C          62.5576   84.0263   12.4376 C.ar    1  UNL1       -0.0000
     10 C          63.0369   82.8801   11.5972 C.ar    1  UNL1        0.0031
     11 C          63.2880   81.5420   12.2268 C.ar    1  UNL1        0.0366
     12 C          63.0597   81.3502   13.6969 C.ar    1  UNL1        0.1337
     13 O          63.3108   80.0121   14.3266 O.3     1  UNL1       -0.5055
     14 C          62.5804   82.4965   14.5373 C.ar    1  UNL1        0.0366
     15 C          62.3294   83.8345   13.9076 C.ar    1  UNL1        0.0031
     16 H          63.6102   79.2960   13.8016 H       1  UNL1        0.2922
     17 C          64.5454   91.1814   13.5553 C.ar    1  UNL1       -0.0000
     18 C          64.2373   91.1472   15.0230 C.ar    1  UNL1        0.0031
     19 C          65.0785   91.9333   15.9845 C.ar    1  UNL1        0.0366
     20 C          66.2277   92.7535   15.4784 C.ar    1  UNL1        0.1337
     21 O          67.0690   93.5396   16.4399 O.3     1  UNL1       -0.5055
     22 C          66.5359   92.7877   14.0108 C.ar    1  UNL1        0.0366
     23 C          65.6948   92.0017   13.0493 C.ar    1  UNL1        0.0031
     24 H          66.8765   93.5183   17.3566 H       1  UNL1        0.2922
@<TRIPOS>BOND
     1     1     2    2
     2     2     3    1
     3     3     4    2
     4     4     9    1
     5     9    10   ar
     6    10    11   ar
     7    11    12   ar
     8    12    13    1
     9    12    14   ar
    10    14    15   ar
    11     3     5    1
    12     5     6    1
    13     6     7    1
    14     7     8    2
    15     8    17    1
    16    17    18   ar
    17    18    19   ar
    18    19    20   ar
    19    20    21    1
    20    20    22   ar
    21    22    23   ar
    22     7     2    1
    23    23    17   ar
    24    15     9   ar
    25    13    16    1
    26    21    24    1
@<TRIPOS>MOLECULE
*****
 24 26 0 0 0
SMALL
GASTEIGER

@<TRIPOS>ATOM
      1 O          63.2472   86.7574   17.4128 O.2     1  UNL1       -0.2872
      2 C          63.4993   86.6662   15.9369 C.2     1  UNL1        0.1877
      3 C          63.9093   87.7971   15.0409 C.2     1  UNL1        0.0167
      4 C          64.1391   89.2179   15.4634 C.2     1  UNL1       -0.0011
      5 C          64.0491   87.2578   13.6482 C.3     1  UNL1        0.0344
      6 C          63.7256   85.7936   13.6835 C.3     1  UNL1        0.0344
      7 C          63.3858   85.4279   15.0980 C.2     1  UNL1        0.0167
      8 C          63.0001   84.0635   15.5876 C.2     1  UNL1       -0.0011
      9 C          64.5483   90.2450   14.4497 C.ar    1  UNL1       -0.0000
     10 C          63.6544   90.5450   13.2831 C.ar    1  UNL1        0.0031
     11 C          64.0636   91.5721   12.2694 C.ar    1  UNL1        0.0366
     12 C          65.3667   92.2992   12.4223 C.ar    1  UNL1        0.1337
     13 O          65.7759   93.3264   11.4086 O.3     1  UNL1       -0.5055
     14 C          66.2605   91.9992   13.5889 C.ar    1  UNL1        0.0366
     15 C          65.8513   90.9721   14.6026 C.ar    1  UNL1        0.0031
     16 H          65.2175   93.5138   10.6798 H       1  UNL1        0.2922
     17 C          62.9284   82.9143   14.6264 C.ar    1  UNL1       -0.0000
     18 C          64.0844   82.6253   13.7151 C.ar    1  UNL1        0.0031
     19 C          64.0127   81.4761   12.7538 C.ar    1  UNL1        0.0366
     20 C          62.7850   80.6158   12.7037 C.ar    1  UNL1        0.1337
     21 O          62.7133   79.4665   11.7424 O.3     1  UNL1       -0.5055
     22 C          61.6290   80.9047   13.6149 C.ar    1  UNL1        0.0366
     23 C          61.7007   82.0538   14.5762 C.ar    1  UNL1        0.0031
     24 H          63.4354   79.2861   11.1733 H       1  UNL1        0.2922
@<TRIPOS>BOND
     1     1     2    2
     2     2     3    1
     3     3     4    2
     4     4     9    1
     5     9    10   ar
     6    10    11   ar
     7    11    12   ar
     8    12    13    1
     9    12    14   ar
    10    14    15   ar
    11     3     5    1
    12     5     6    1
    13     6     7    1
    14     7     8    2
    15     8    17    1
    16    17    18   ar
    17    18    19   ar
    18    19    20   ar
    19    20    21    1
    20    20    22   ar
    21    22    23   ar
    22     7     2    1
    23    23    17   ar
    24    15     9   ar
    25    13    16    1
    26    21    24    1
@<TRIPOS>MOLECULE
*****
 24 26 0 0 0
SMALL
GASTEIGER

@<TRIPOS>ATOM
      1 O          63.2205   86.9162   17.3715 O.2     1  UNL1       -0.2872
      2 C          63.4927   86.7933   15.9016 C.2     1  UNL1        0.1877
      3 C          63.3825   85.5391   15.0863 C.2     1  UNL1        0.0167
      4 C          62.9808   84.1875   15.5978 C.2     1  UNL1       -0.0011
      5 C          63.7447   85.8738   13.6696 C.3     1  UNL1        0.0344
      6 C          64.0786   87.3349   13.6094 C.3     1  UNL1        0.0344
      7 C          63.9229   87.9032   14.9889 C.2     1  UNL1        0.0167
      8 C          64.1564   89.3308   15.3858 C.2     1  UNL1       -0.0011
      9 C          62.9147   83.0194   14.6589 C.ar    1  UNL1       -0.0000
     10 C          61.6732   82.1804   14.5919 C.ar    1  UNL1        0.0031
     11 C          61.6072   81.0124   13.6530 C.ar    1  UNL1        0.0366
     12 C          62.7828   80.6835   12.7813 C.ar    1  UNL1        0.1337
     13 O          62.7167   79.5154   11.8424 O.3     1  UNL1       -0.5055
     14 C          64.0243   81.5226   12.8483 C.ar    1  UNL1        0.0366
     15 C          64.0903   82.6905   13.7872 C.ar    1  UNL1        0.0031
     16 H          61.9412   78.9913   11.8005 H       1  UNL1        0.2922
     17 C          64.5868   90.3344   14.3575 C.ar    1  UNL1       -0.0000
     18 C          65.8732   91.0853   14.5347 C.ar    1  UNL1        0.0031
     19 C          66.3036   92.0890   13.5064 C.ar    1  UNL1        0.0366
     20 C          65.4476   92.3418   12.3009 C.ar    1  UNL1        0.1337
     21 O          65.8780   93.3454   11.2726 O.3     1  UNL1       -0.5055
     22 C          64.1612   91.5909   12.1237 C.ar    1  UNL1        0.0366
     23 C          63.7308   90.5873   13.1519 C.ar    1  UNL1        0.0031
     24 H          66.6815   93.8145   11.3833 H       1  UNL1        0.2922
@<TRIPOS>BOND
     1     1     2    2
     2     2     3    1
     3     3     4    2
     4     4     9    1
     5     9    10   ar
     6    10    11   ar
     7    11    12   ar
     8    12    13    1
     9    12    14   ar
    10    14    15   ar
    11     3     5    1
    12     5     6    1
    13     6     7    1
    14     7     8    2
    15     8    17    1
    16    17    18   ar
    17    18    19   ar
    18    19    20   ar
    19    20    21    1
    20    20    22   ar
    21    22    23   ar
    22     7     2    1
    23    23    17   ar
    24    15     9   ar
    25    13    16    1
    26    21    24    1
@<TRIPOS>MOLECULE
*****
 24 26 0 0 0
SMALL
GASTEIGER

@<TRIPOS>ATOM
      1 O          60.1123   89.7308   13.0131 O.2     1  UNL1       -0.2872
      2 C          61.3510   89.4143   12.2286 C.2     1  UNL1        0.1877
      3 C          61.4345   88.4965   11.0451 C.2     1  UNL1        0.0167
      4 C          60.2941   87.7342   10.4383 C.2     1  UNL1       -0.0011
      5 C          62.8588   88.4750   10.5749 C.3     1  UNL1        0.0344
      6 C          63.6555   89.3794   11.4678 C.3     1  UNL1        0.0344
      7 C          62.7236   89.9599   12.4899 C.2     1  UNL1        0.0167
      8 C          63.0985   90.9178   13.5816 C.2     1  UNL1       -0.0011
      9 C          60.5309   86.8503    9.2497 C.ar    1  UNL1       -0.0000
     10 C          59.4527   86.6698    8.2226 C.ar    1  UNL1        0.0031
     11 C          59.6895   85.7859    7.0341 C.ar    1  UNL1        0.0366
     12 C          61.0045   85.0825    6.8727 C.ar    1  UNL1        0.1337
     13 O          61.2413   84.1986    5.6841 O.3     1  UNL1       -0.5055
     14 C          62.0827   85.2630    7.8997 C.ar    1  UNL1        0.0366
     15 C          61.8459   86.1469    9.0882 C.ar    1  UNL1        0.0031
     16 H          60.5677   84.0858    5.0425 H       1  UNL1        0.2922
     17 C          64.5193   91.3782   13.7203 C.ar    1  UNL1       -0.0000
     18 C          65.3367   90.9436   14.9006 C.ar    1  UNL1        0.0031
     19 C          66.7576   91.4039   15.0393 C.ar    1  UNL1        0.0366
     20 C          67.3611   92.2987   13.9977 C.ar    1  UNL1        0.1337
     21 O          68.7820   92.7590   14.1364 O.3     1  UNL1       -0.5055
     22 C          66.5438   92.7333   12.8174 C.ar    1  UNL1        0.0366
     23 C          65.1230   92.2730   12.6787 C.ar    1  UNL1        0.0031
     24 H          69.2925   92.4876   14.8737 H       1  UNL1        0.2922
@<TRIPOS>BOND
     1     1     2    2
     2     2     3    1
     3     3     4    2
     4     4     9    1
     5     9    10   ar
     6    10    11   ar
     7    11    12   ar
     8    12    13    1
     9    12    14   ar
    10    14    15   ar
    11     3     5    1
    12     5     6    1
    13     6     7    1
    14     7     8    2
    15     8    17    1
    16    17    18   ar
    17    18    19   ar
    18    19    20   ar
    19    20    21    1
    20    20    22   ar
    21    22    23   ar
    22     7     2    1
    23    23    17   ar
    24    15     9   ar
    25    13    16    1
    26    21    24    1
@<TRIPOS>MOLECULE
*****
 24 26 0 0 0
SMALL
GASTEIGER

@<TRIPOS>ATOM
      1 O          60.1101   89.7305   13.0134 O.2     1  UNL1       -0.2872
      2 C          61.3485   89.4138   12.2284 C.2     1  UNL1        0.1877
      3 C          62.7213   89.9591   12.4893 C.2     1  UNL1        0.0167
      4 C          63.0967   90.9168   13.5810 C.2     1  UNL1       -0.0011
      5 C          63.6527   89.3785   11.4668 C.3     1  UNL1        0.0344
      6 C          62.8555   88.4744   10.5740 C.3     1  UNL1        0.0344
      7 C          61.4314   88.4963   11.0447 C.2     1  UNL1        0.0167
      8 C          60.2906   87.7343   10.4382 C.2     1  UNL1       -0.0011
      9 C          64.5178   91.3768   13.7193 C.ar    1  UNL1       -0.0000
     10 C          65.1225   92.2682   12.6754 C.ar    1  UNL1        0.0031
     11 C          66.5435   92.7281   12.8137 C.ar    1  UNL1        0.0366
     12 C          67.3598   92.2966   13.9959 C.ar    1  UNL1        0.1337
     13 O          68.7809   92.7566   14.1342 O.3     1  UNL1       -0.5055
     14 C          66.7551   91.4052   15.0397 C.ar    1  UNL1        0.0366
     15 C          65.3341   90.9453   14.9014 C.ar    1  UNL1        0.0031
     16 H          69.1586   93.3134   13.4821 H       1  UNL1        0.2922
     17 C          60.5267   86.8505    9.2494 C.ar    1  UNL1       -0.0000
     18 C          59.4478   86.6697    8.2230 C.ar    1  UNL1        0.0031
     19 C          59.6840   85.7859    7.0343 C.ar    1  UNL1        0.0366
     20 C          60.9989   85.0829    6.8719 C.ar    1  UNL1        0.1337
     21 O          61.2351   84.1991    5.6831 O.3     1  UNL1       -0.5055
     22 C          62.0778   85.2636    7.8982 C.ar    1  UNL1        0.0366
     23 C          61.8417   86.1473    9.0869 C.ar    1  UNL1        0.0031
     24 H          60.5612   84.0862    5.0420 H       1  UNL1        0.2922
@<TRIPOS>BOND
     1     1     2    2
     2     2     3    1
     3     3     4    2
     4     4     9    1
     5     9    10   ar
     6    10    11   ar
     7    11    12   ar
     8    12    13    1
     9    12    14   ar
    10    14    15   ar
    11     3     5    1
    12     5     6    1
    13     6     7    1
    14     7     8    2
    15     8    17    1
    16    17    18   ar
    17    18    19   ar
    18    19    20   ar
    19    20    21    1
    20    20    22   ar
    21    22    23   ar
    22     7     2    1
    23    23    17   ar
    24    15     9   ar
    25    13    16    1
    26    21    24    1
