@<TRIPOS>MOLECULE
*****
 47 50 0 0 0
SMALL
GASTEIGER

@<TRIPOS>ATOM
      1 N          63.1832   90.6362   11.0874 N.ar    1  UNL1       -0.2470
      2 C          63.0243   89.7346   12.2756 C.ar    1  UNL1        0.2654
      3 O          62.0402   88.6033   12.2323 O.2     1  UNL1       -0.2668
      4 C          63.8494   89.9642   13.5070 C.ar    1  UNL1        0.0703
      5 C          64.8334   91.0954   13.5502 C.ar    1  UNL1        0.0465
      6 C          65.3718   91.1572   14.5000 C.3     1  UNL1        0.0503
      7 N          64.9924   91.9971   12.3621 N.ar    1  UNL1       -0.2806
      8 C          64.1673   91.7675   11.1307 C.ar    1  UNL1        0.3338
      9 O          64.3263   92.6691    9.9425 O.2     1  UNL1       -0.2462
     10 C          63.6904   89.0625   14.6952 C.ar    1  UNL1        0.0362
     11 C          63.2265   89.6244   16.0063 C.ar    1  UNL1        0.0026
     12 C          63.0676   88.7229   17.1945 C.ar    1  UNL1        0.0033
     13 C          63.3725   87.2593   17.0716 C.ar    1  UNL1        0.0392
     14 C          63.8364   86.6974   15.7605 C.ar    1  UNL1        0.1658
     15 C          63.9954   87.5990   14.5723 C.ar    1  UNL1        0.1739
     16 F          64.4593   87.0371   13.2612 F       1  UNL1       -0.2010
     17 O          64.1414   85.2339   15.6376 O.3     1  UNL1       -0.4732
     18 C          63.2740   84.3561   14.7849 C.3     1  UNL1        0.2055
     19 C          63.7877   83.8411   13.4731 C.3     1  UNL1        0.0477
     20 C          62.8347   83.2635   12.4690 C.3     1  UNL1        0.0097
     21 C          62.5982   81.7830   12.4249 C.3     1  UNL1        0.0418
     22 C          62.2916   81.0344   13.6881 C.2     1  UNL1        0.0503
     23 O          60.8932   81.0197   14.2305 O.co2   1  UNL1       -0.5492
     24 O          63.3833   80.3005   14.4088 O.co2   1  UNL1       -0.5492
     25 C          62.3581   90.4066    9.8559 C.3     1  UNL1        0.1337
     26 C          61.0047   89.7698    9.9679 C.3     1  UNL1        0.1000
     27 C          60.7136   88.4931    9.2360 C.ar    1  UNL1       -0.0061
     28 C          61.6507   87.3283    9.3580 C.ar    1  UNL1       -0.0029
     29 C          61.3596   86.0518    8.6261 C.ar    1  UNL1       -0.0003
     30 C          60.1314   85.9401    7.7723 C.ar    1  UNL1       -0.0000
     31 C          59.1942   87.1049    7.6503 C.ar    1  UNL1       -0.0003
     32 C          59.4854   88.3815    8.3822 C.ar    1  UNL1       -0.0029
     33 C          59.2773   89.6240   11.9031 C.3     1  UNL1        0.0861
     34 N          59.9423   90.4094   10.8118 N.3     1  UNL1       -0.2924
     35 H          60.3679   91.2246   11.2531 H       1  UNL1        0.1236
     36 C          65.9765   93.1283   12.4054 C.3     1  UNL1        0.1391
     37 C          66.8359   93.4208   11.2113 C.ar    1  UNL1        0.0319
     38 C          67.7742   92.3740   10.6880 C.ar    1  UNL1        0.1379
     39 F          67.9235   91.3662   11.0852 F       1  UNL1       -0.2044
     40 C          68.6337   92.6665    9.4940 C.ar    1  UNL1        0.0294
     41 C          68.5549   94.0059    8.8232 C.ar    1  UNL1        0.0022
     42 C          67.6166   95.0527    9.3465 C.ar    1  UNL1        0.0037
     43 C          66.7571   94.7602   10.5406 C.ar    1  UNL1        0.0714
     44 C          65.8189   95.8070   11.0638 C.3     1  UNL1        0.4184
     45 F          64.8807   96.8538   11.5871 F       1  UNL1       -0.1659
     46 F          64.9748   95.6662    9.8320 F       1  UNL1       -0.1659
     47 F          66.6630   95.9478   12.2957 F       1  UNL1       -0.1659
@<TRIPOS>UNITY_ATOM_ATTR
23 1
charge -1
@<TRIPOS>BOND
     1    33    34    1
     2    34    26    1
     3    26    25    1
     4    25     1    1
     5     1     2   ar
     6     2     3    2
     7     2     4   ar
     8     4    10    1
     9    10    11   ar
    10    11    12   ar
    11    12    13   ar
    12    13    14   ar
    13    14    17    1
    14    17    18    1
    15    18    19    1
    16    19    20    1
    17    20    21    1
    18    21    22    1
    19    22    23   ar
    20    22    24   ar
    21    14    15   ar
    22    15    16    1
    23     4     5   ar
    24     5     6    1
    25     5     7   ar
    26     7    36    1
    27    36    37    1
    28    37    38   ar
    29    38    39    1
    30    38    40   ar
    31    40    41   ar
    32    41    42   ar
    33    42    43   ar
    34    43    44    1
    35    44    45    1
    36    44    46    1
    37    44    47    1
    38     7     8   ar
    39     8     9    2
    40    26    27    1
    41    27    28   ar
    42    28    29   ar
    43    29    30   ar
    44    30    31   ar
    45    31    32   ar
    46     8     1   ar
    47    32    27   ar
    48    15    10   ar
    49    43    37   ar
    50    34    35    1
@<TRIPOS>MOLECULE
*****
 47 50 0 0 0
SMALL
GASTEIGER

@<TRIPOS>ATOM
      1 N          63.5471   86.4314   13.3396 N.ar    1  UNL1       -0.2470
      2 C          63.1102   85.8940   12.0091 C.ar    1  UNL1        0.2654
      3 O          63.1470   84.4174   11.7478 O.2     1  UNL1       -0.2668
      4 C          62.6364   86.8333   10.9399 C.ar    1  UNL1        0.0703
      5 C          62.5995   88.3099   11.2011 C.ar    1  UNL1        0.0465
      6 C          62.2361   88.8861   10.3458 C.3     1  UNL1        0.0503
      7 N          63.0364   88.8473   12.5316 N.ar    1  UNL1       -0.2806
      8 C          63.5103   87.9080   13.6008 C.ar    1  UNL1        0.3338
      9 O          63.9473   88.4454   14.9314 O.2     1  UNL1       -0.2462
     10 C          62.1994   86.2959    9.6093 C.ar    1  UNL1        0.0362
     11 C          63.1557   85.5007    8.7708 C.ar    1  UNL1        0.0026
     12 C          62.7188   84.9634    7.4403 C.ar    1  UNL1        0.0033
     13 C          61.3254   85.2212    6.9482 C.ar    1  UNL1        0.0392
     14 C          60.3691   86.0165    7.7866 C.ar    1  UNL1        0.1658
     15 C          60.8061   86.5538    9.1172 C.ar    1  UNL1        0.1739
     16 F          59.8497   87.3490    9.9556 F       1  UNL1       -0.2010
     17 O          58.9758   86.2744    7.2945 O.3     1  UNL1       -0.4732
     18 C          58.4283   87.6708    7.2906 C.3     1  UNL1        0.2055
     19 C          59.2980   88.8162    6.8642 C.3     1  UNL1        0.0477
     20 C          58.6744   90.0948    6.3885 C.3     1  UNL1        0.0097
     21 C          59.3315   90.8898    5.2994 C.3     1  UNL1        0.0418
     22 C          58.5508   91.9343    4.5578 C.2     1  UNL1        0.0503
     23 O          57.1164   92.1916    4.9133 O.co2   1  UNL1       -0.5492
     24 O          59.2045   92.7212    3.4609 O.co2   1  UNL1       -0.5492
     25 C          64.0210   85.4921   14.4089 C.3     1  UNL1        0.1337
     26 C          63.0485   84.5686   15.0807 C.3     1  UNL1        0.1000
     27 C          62.8854   83.1620   14.5856 C.ar    1  UNL1       -0.0061
     28 C          64.0733   82.4067   14.0677 C.ar    1  UNL1       -0.0029
     29 C          63.9101   81.0002   13.5726 C.ar    1  UNL1       -0.0003
     30 C          62.5590   80.3491   13.5954 C.ar    1  UNL1       -0.0000
     31 C          61.3711   81.1044   14.1133 C.ar    1  UNL1       -0.0003
     32 C          61.5343   82.5109   14.6084 C.ar    1  UNL1       -0.0029
     33 C          62.8116   86.0720   17.1864 C.3     1  UNL1        0.0861
     34 N          62.2392   85.0515   16.2476 N.3     1  UNL1       -0.2924
     35 H          61.3816   85.4507   15.8661 H       1  UNL1        0.1236
     36 C          62.9996   90.3239   12.7929 C.3     1  UNL1        0.1391
     37 C          64.1560   91.1870   12.3837 C.ar    1  UNL1        0.0319
     38 C          64.3228   91.5860   10.9473 C.ar    1  UNL1        0.1379
     39 F          63.6746   91.3149   10.1095 F       1  UNL1       -0.2044
     40 C          65.4793   92.4492   10.5381 C.ar    1  UNL1        0.0294
     41 C          66.4690   92.9134   11.5652 C.ar    1  UNL1        0.0022
     42 C          66.3023   92.5144   13.0015 C.ar    1  UNL1        0.0037
     43 C          65.1458   91.6512   13.4108 C.ar    1  UNL1        0.0714
     44 C          64.9790   91.2523   14.8471 C.3     1  UNL1        0.4184
     45 F          64.8123   90.8534   16.2834 F       1  UNL1       -0.1659
     46 F          66.4247   90.8565   14.9050 F       1  UNL1       -0.1659
     47 F          63.5334   91.6481   14.7892 F       1  UNL1       -0.1659
@<TRIPOS>UNITY_ATOM_ATTR
23 1
charge -1
@<TRIPOS>BOND
     1    33    34    1
     2    34    26    1
     3    26    25    1
     4    25     1    1
     5     1     2   ar
     6     2     3    2
     7     2     4   ar
     8     4    10    1
     9    10    11   ar
    10    11    12   ar
    11    12    13   ar
    12    13    14   ar
    13    14    17    1
    14    17    18    1
    15    18    19    1
    16    19    20    1
    17    20    21    1
    18    21    22    1
    19    22    23   ar
    20    22    24   ar
    21    14    15   ar
    22    15    16    1
    23     4     5   ar
    24     5     6    1
    25     5     7   ar
    26     7    36    1
    27    36    37    1
    28    37    38   ar
    29    38    39    1
    30    38    40   ar
    31    40    41   ar
    32    41    42   ar
    33    42    43   ar
    34    43    44    1
    35    44    45    1
    36    44    46    1
    37    44    47    1
    38     7     8   ar
    39     8     9    2
    40    26    27    1
    41    27    28   ar
    42    28    29   ar
    43    29    30   ar
    44    30    31   ar
    45    31    32   ar
    46     8     1   ar
    47    32    27   ar
    48    15    10   ar
    49    43    37   ar
    50    34    35    1
@<TRIPOS>MOLECULE
*****
 47 50 0 0 0
SMALL
GASTEIGER

@<TRIPOS>ATOM
      1 N          63.1715   89.8340   11.3665 N.ar    1  UNL1       -0.2470
      2 C          63.0610   88.8269   12.4726 C.ar    1  UNL1        0.2654
      3 O          62.2847   87.5612   12.2597 O.2     1  UNL1       -0.2668
      4 C          63.7269   89.0854   13.7916 C.ar    1  UNL1        0.0703
      5 C          64.5032   90.3511   14.0045 C.ar    1  UNL1        0.0465
      6 C          64.9394   90.4216   15.0047 C.3     1  UNL1        0.0503
      7 N          64.6137   91.3583   12.8984 N.ar    1  UNL1       -0.2806
      8 C          63.9479   91.0997   11.5795 C.ar    1  UNL1        0.3338
      9 O          64.0583   92.1068   10.4733 O.2     1  UNL1       -0.2462
     10 C          63.6164   88.0783   14.8978 C.ar    1  UNL1        0.0362
     11 C          63.0985   88.4950   16.2425 C.ar    1  UNL1        0.0026
     12 C          62.9880   87.4879   17.3486 C.ar    1  UNL1        0.0033
     13 C          63.3954   86.0641   17.1101 C.ar    1  UNL1        0.0392
     14 C          63.9133   85.6474   15.7654 C.ar    1  UNL1        0.1658
     15 C          64.0237   86.6546   14.6592 C.ar    1  UNL1        0.1739
     16 F          64.5416   86.2379   13.3145 F       1  UNL1       -0.2010
     17 O          64.3206   84.2237   15.5268 O.3     1  UNL1       -0.4732
     18 C          63.2768   83.1506   15.4329 C.3     1  UNL1        0.2055
     19 C          62.4516   83.0140   14.1877 C.3     1  UNL1        0.0477
     20 C          62.5795   81.7872   13.3340 C.3     1  UNL1        0.0097
     21 C          62.6824   81.9183   11.8434 C.3     1  UNL1        0.0418
     22 C          63.5572   82.9783   11.2423 C.2     1  UNL1        0.0503
     23 O          64.9037   82.6151   10.6899 O.co2   1  UNL1       -0.5492
     24 O          63.0855   84.4013   11.1936 O.co2   1  UNL1       -0.5492
     25 C          62.5057   89.5754   10.0475 C.3     1  UNL1        0.1337
     26 C          61.2337   88.7824    9.9921 C.3     1  UNL1        0.1000
     27 C          61.1295   87.5944    9.0822 C.ar    1  UNL1       -0.0061
     28 C          62.3161   86.6998    8.8779 C.ar    1  UNL1       -0.0029
     29 C          62.2118   85.5119    7.9680 C.ar    1  UNL1       -0.0003
     30 C          60.9211   85.2186    7.2624 C.ar    1  UNL1       -0.0000
     31 C          59.7345   86.1132    7.4667 C.ar    1  UNL1       -0.0003
     32 C          59.8388   87.3011    8.3766 C.ar    1  UNL1       -0.0029
     33 C          59.7692   90.6279   11.0874 C.3     1  UNL1        0.0861
     34 N          60.0659   89.1773   10.8466 N.3     1  UNL1       -0.2924
     35 H          59.2347   88.7748   10.4136 H       1  UNL1        0.1236
     36 C          65.3900   92.6240   13.1114 C.3     1  UNL1        0.1391
     37 C          66.6282   92.6109   13.9579 C.ar    1  UNL1        0.0319
     38 C          66.5365   92.9074   15.4255 C.ar    1  UNL1        0.1379
     39 F          65.6331   93.1458   15.9935 F       1  UNL1       -0.2044
     40 C          67.7746   92.8944   16.2721 C.ar    1  UNL1        0.0294
     41 C          69.1046   92.5849   15.6512 C.ar    1  UNL1        0.0022
     42 C          69.1963   92.2885   14.1836 C.ar    1  UNL1        0.0037
     43 C          67.9581   92.3015   13.3370 C.ar    1  UNL1        0.0714
     44 C          68.0498   92.0051   11.8695 C.3     1  UNL1        0.4184
     45 F          68.1416   91.7086   10.4019 F       1  UNL1       -0.1659
     46 F          67.1392   93.1610   11.5790 F       1  UNL1       -0.1659
     47 F          68.9605   90.8491   12.1599 F       1  UNL1       -0.1659
@<TRIPOS>UNITY_ATOM_ATTR
23 1
charge -1
@<TRIPOS>BOND
     1    33    34    1
     2    34    26    1
     3    26    25    1
     4    25     1    1
     5     1     2   ar
     6     2     3    2
     7     2     4   ar
     8     4    10    1
     9    10    11   ar
    10    11    12   ar
    11    12    13   ar
    12    13    14   ar
    13    14    17    1
    14    17    18    1
    15    18    19    1
    16    19    20    1
    17    20    21    1
    18    21    22    1
    19    22    23   ar
    20    22    24   ar
    21    14    15   ar
    22    15    16    1
    23     4     5   ar
    24     5     6    1
    25     5     7   ar
    26     7    36    1
    27    36    37    1
    28    37    38   ar
    29    38    39    1
    30    38    40   ar
    31    40    41   ar
    32    41    42   ar
    33    42    43   ar
    34    43    44    1
    35    44    45    1
    36    44    46    1
    37    44    47    1
    38     7     8   ar
    39     8     9    2
    40    26    27    1
    41    27    28   ar
    42    28    29   ar
    43    29    30   ar
    44    30    31   ar
    45    31    32   ar
    46     8     1   ar
    47    32    27   ar
    48    15    10   ar
    49    43    37   ar
    50    34    35    1
@<TRIPOS>MOLECULE
*****
 47 50 0 0 0
SMALL
GASTEIGER

@<TRIPOS>ATOM
      1 N          64.9883   91.5368   12.9649 N.ar    1  UNL1       -0.2470
      2 C          64.7927   90.5373   14.0660 C.ar    1  UNL1        0.2654
      3 O          65.5391   90.6892   15.3582 O.2     1  UNL1       -0.2668
      4 C          63.8507   89.3858   13.8750 C.ar    1  UNL1        0.0703
      5 C          63.1043   89.2338   12.5828 C.ar    1  UNL1        0.0465
      6 C          62.4509   88.3571   12.5674 C.3     1  UNL1        0.0503
      7 N          63.2999   90.2334   11.4817 N.ar    1  UNL1       -0.2806
      8 C          64.2419   91.3849   11.6727 C.ar    1  UNL1        0.3338
      9 O          64.4375   92.3846   10.5715 O.2     1  UNL1       -0.2462
     10 C          63.6550   88.3861   14.9762 C.ar    1  UNL1        0.0362
     11 C          63.1092   88.8277   16.3017 C.ar    1  UNL1        0.0026
     12 C          62.9136   87.8281   17.4028 C.ar    1  UNL1        0.0033
     13 C          63.2637   86.3869   17.1785 C.ar    1  UNL1        0.0392
     14 C          63.8096   85.9453   15.8529 C.ar    1  UNL1        0.1658
     15 C          64.0052   86.9450   14.7517 C.ar    1  UNL1        0.1739
     16 F          64.5510   86.5034   13.4262 F       1  UNL1       -0.2010
     17 O          64.1597   84.5041   15.6285 O.3     1  UNL1       -0.4732
     18 C          63.0922   83.5247   15.2401 C.3     1  UNL1        0.2055
     19 C          63.4005   82.4263   14.2662 C.3     1  UNL1        0.0477
     20 C          62.3800   82.0222   13.2437 C.3     1  UNL1        0.0097
     21 C          62.7651   81.9259   11.7972 C.3     1  UNL1        0.0418
     22 C          63.5834   83.0126   11.1650 C.2     1  UNL1        0.0503
     23 O          64.7536   82.6605   10.2951 O.co2   1  UNL1       -0.5492
     24 O          63.2316   84.4512   11.4027 O.co2   1  UNL1       -0.5492
     25 C          65.9304   92.6884   13.1559 C.3     1  UNL1        0.1337
     26 C          67.3196   92.6221   12.5942 C.3     1  UNL1        0.1000
     27 C          67.5734   93.0247   11.1716 C.ar    1  UNL1       -0.0061
     28 C          67.1068   94.3613   10.6758 C.ar    1  UNL1       -0.0029
     29 C          67.3606   94.7638    9.2533 C.ar    1  UNL1       -0.0003
     30 C          68.0811   93.8299    8.3267 C.ar    1  UNL1       -0.0000
     31 C          68.5477   92.4933    8.8225 C.ar    1  UNL1       -0.0003
     32 C          68.2939   92.0908   10.2450 C.ar    1  UNL1       -0.0029
     33 C          68.5052   92.5360   14.9044 C.3     1  UNL1        0.0861
     34 N          68.4551   92.1531   13.4549 N.3     1  UNL1       -0.2924
     35 H          68.4498   91.1338   13.4195 H       1  UNL1        0.1236
     36 C          62.5534   90.0815   10.1895 C.3     1  UNL1        0.1391
     37 C          61.7327   88.8515    9.9376 C.ar    1  UNL1        0.0319
     38 C          62.3675   87.6388    9.3240 C.ar    1  UNL1        0.1379
     39 F          63.4112   87.5260    9.0179 F       1  UNL1       -0.2044
     40 C          61.5468   86.4088    9.0721 C.ar    1  UNL1        0.0294
     41 C          60.0911   86.3915    9.4338 C.ar    1  UNL1        0.0022
     42 C          59.4563   87.6041   10.0474 C.ar    1  UNL1        0.0037
     43 C          60.2770   88.8341   10.2993 C.ar    1  UNL1        0.0714
     44 C          59.6422   90.0467   10.9128 C.3     1  UNL1        0.4184
     45 F          59.0073   91.2593   11.5264 F       1  UNL1       -0.1659
     46 F          59.5414   89.3294   12.2263 F       1  UNL1       -0.1659
     47 F          59.7429   90.7641    9.5994 F       1  UNL1       -0.1659
@<TRIPOS>UNITY_ATOM_ATTR
23 1
charge -1
@<TRIPOS>BOND
     1    33    34    1
     2    34    26    1
     3    26    25    1
     4    25     1    1
     5     1     2   ar
     6     2     3    2
     7     2     4   ar
     8     4    10    1
     9    10    11   ar
    10    11    12   ar
    11    12    13   ar
    12    13    14   ar
    13    14    17    1
    14    17    18    1
    15    18    19    1
    16    19    20    1
    17    20    21    1
    18    21    22    1
    19    22    23   ar
    20    22    24   ar
    21    14    15   ar
    22    15    16    1
    23     4     5   ar
    24     5     6    1
    25     5     7   ar
    26     7    36    1
    27    36    37    1
    28    37    38   ar
    29    38    39    1
    30    38    40   ar
    31    40    41   ar
    32    41    42   ar
    33    42    43   ar
    34    43    44    1
    35    44    45    1
    36    44    46    1
    37    44    47    1
    38     7     8   ar
    39     8     9    2
    40    26    27    1
    41    27    28   ar
    42    28    29   ar
    43    29    30   ar
    44    30    31   ar
    45    31    32   ar
    46     8     1   ar
    47    32    27   ar
    48    15    10   ar
    49    43    37   ar
    50    34    35    1
@<TRIPOS>MOLECULE
*****
 47 50 0 0 0
SMALL
GASTEIGER

@<TRIPOS>ATOM
      1 N          61.2912   88.4205   11.4400 N.ar    1  UNL1       -0.2470
      2 C          61.8692   87.1616   12.0152 C.ar    1  UNL1        0.2654
      3 O          61.2996   85.8292   11.6273 O.2     1  UNL1       -0.2668
      4 C          63.0168   87.2350   12.9783 C.ar    1  UNL1        0.0703
      5 C          63.5864   88.5673   13.3661 C.ar    1  UNL1        0.0465
      6 C          64.4172   88.4874   14.0726 C.3     1  UNL1        0.0503
      7 N          63.0084   89.8263   12.7909 N.ar    1  UNL1       -0.2806
      8 C          61.8608   89.7529   11.8278 C.ar    1  UNL1        0.3338
      9 O          61.2827   91.0119   11.2526 O.2     1  UNL1       -0.2462
     10 C          63.5949   85.9760   13.5535 C.ar    1  UNL1        0.0362
     11 C          63.8075   85.8563   15.0336 C.ar    1  UNL1        0.0026
     12 C          64.3855   84.5974   15.6088 C.ar    1  UNL1        0.0033
     13 C          64.7510   83.4581   14.7041 C.ar    1  UNL1        0.0392
     14 C          64.5385   83.5778   13.2241 C.ar    1  UNL1        0.1658
     15 C          63.9604   84.8368   12.6488 C.ar    1  UNL1        0.1739
     16 F          63.7478   84.9565   11.1688 F       1  UNL1       -0.2010
     17 O          64.9039   82.4386   12.3193 O.3     1  UNL1       -0.4732
     18 C          64.0301   82.1013   11.1477 C.3     1  UNL1        0.2055
     19 C          62.7586   81.3334   11.3569 C.3     1  UNL1        0.0477
     20 C          62.7378   80.1558   12.2857 C.3     1  UNL1        0.0097
     21 C          62.5332   80.3646   13.7569 C.3     1  UNL1        0.0418
     22 C          61.3822   81.1943   14.2438 C.2     1  UNL1        0.0503
     23 O          61.6082   82.6156   14.6665 O.co2   1  UNL1       -0.5492
     24 O          60.0053   80.6026   14.3078 O.co2   1  UNL1       -0.5492
     25 C          60.1435   88.3472   10.4768 C.3     1  UNL1        0.1337
     26 C          60.4056   88.2848    9.0012 C.3     1  UNL1        0.1000
     27 C          61.0040   87.0490    8.3973 C.ar    1  UNL1       -0.0061
     28 C          60.1772   86.1770    7.4995 C.ar    1  UNL1       -0.0029
     29 C          60.7757   84.9413    6.8957 C.ar    1  UNL1       -0.0003
     30 C          62.2009   84.5775    7.1895 C.ar    1  UNL1       -0.0000
     31 C          63.0277   85.4495    8.0873 C.ar    1  UNL1       -0.0003
     32 C          62.4292   86.6852    8.6912 C.ar    1  UNL1       -0.0029
     33 C          59.2897   89.2537    6.8643 C.3     1  UNL1        0.0861
     34 N          60.0692   89.4583    8.1295 N.3     1  UNL1       -0.2924
     35 H          59.5324   90.1078    8.7043 H       1  UNL1        0.1236
     36 C          63.5780   91.1586   13.1788 C.3     1  UNL1        0.1391
     37 C          64.7439   91.7244   12.4235 C.ar    1  UNL1        0.0319
     38 C          64.6723   91.8697   10.9322 C.ar    1  UNL1        0.1379
     39 F          63.8331   91.6019   10.2845 F       1  UNL1       -0.2044
     40 C          65.8382   92.4355   10.1770 C.ar    1  UNL1        0.0294
     41 C          67.0758   92.8560   10.9130 C.ar    1  UNL1        0.0022
     42 C          67.1474   92.7108   12.4042 C.ar    1  UNL1        0.0037
     43 C          65.9814   92.1449   13.1595 C.ar    1  UNL1        0.0714
     44 C          66.0531   91.9997   14.6507 C.3     1  UNL1        0.4184
     45 F          66.1247   91.8544   16.1419 F       1  UNL1       -0.1659
     46 F          66.2854   90.5259   14.4960 F       1  UNL1       -0.1659
     47 F          65.8207   93.4734   14.8054 F       1  UNL1       -0.1659
@<TRIPOS>UNITY_ATOM_ATTR
23 1
charge -1
@<TRIPOS>BOND
     1    33    34    1
     2    34    26    1
     3    26    25    1
     4    25     1    1
     5     1     2   ar
     6     2     3    2
     7     2     4   ar
     8     4    10    1
     9    10    11   ar
    10    11    12   ar
    11    12    13   ar
    12    13    14   ar
    13    14    17    1
    14    17    18    1
    15    18    19    1
    16    19    20    1
    17    20    21    1
    18    21    22    1
    19    22    23   ar
    20    22    24   ar
    21    14    15   ar
    22    15    16    1
    23     4     5   ar
    24     5     6    1
    25     5     7   ar
    26     7    36    1
    27    36    37    1
    28    37    38   ar
    29    38    39    1
    30    38    40   ar
    31    40    41   ar
    32    41    42   ar
    33    42    43   ar
    34    43    44    1
    35    44    45    1
    36    44    46    1
    37    44    47    1
    38     7     8   ar
    39     8     9    2
    40    26    27    1
    41    27    28   ar
    42    28    29   ar
    43    29    30   ar
    44    30    31   ar
    45    31    32   ar
    46     8     1   ar
    47    32    27   ar
    48    15    10   ar
    49    43    37   ar
    50    34    35    1
@<TRIPOS>MOLECULE
*****
 47 50 0 0 0
SMALL
GASTEIGER

@<TRIPOS>ATOM
      1 N          63.6504   90.7430   12.1159 N.ar    1  UNL1       -0.2470
      2 C          62.6977   90.1123   11.1441 C.ar    1  UNL1        0.2654
      3 O          62.0346   90.9511   10.0920 O.2     1  UNL1       -0.2668
      4 C          62.4080   88.6427   11.2244 C.ar    1  UNL1        0.0703
      5 C          63.0710   87.8039   12.2764 C.ar    1  UNL1        0.0465
      6 C          62.7784   86.7513   12.2306 C.3     1  UNL1        0.0503
      7 N          64.0237   88.4347   13.2482 N.ar    1  UNL1       -0.2806
      8 C          64.3134   89.9042   13.1679 C.ar    1  UNL1        0.3338
      9 O          65.2662   90.5350   14.1398 O.2     1  UNL1       -0.2462
     10 C          61.4552   88.0119   10.2525 C.ar    1  UNL1        0.0362
     11 C          59.9820   88.2675   10.3733 C.ar    1  UNL1        0.0026
     12 C          59.0293   87.6367    9.4015 C.ar    1  UNL1        0.0033
     13 C          59.5496   86.7504    8.3090 C.ar    1  UNL1        0.0392
     14 C          61.0227   86.4948    8.1882 C.ar    1  UNL1        0.1658
     15 C          61.9755   87.1256    9.1600 C.ar    1  UNL1        0.1739
     16 F          63.4487   86.8700    9.0393 F       1  UNL1       -0.2010
     17 O          61.5431   85.6084    7.0957 O.3     1  UNL1       -0.4732
     18 C          62.7266   84.7222    7.3487 C.3     1  UNL1        0.2055
     19 C          62.7274   83.7891    8.5232 C.3     1  UNL1        0.0477
     20 C          63.8779   83.7958    9.4856 C.3     1  UNL1        0.0097
     21 C          63.6567   83.4231   10.9216 C.3     1  UNL1        0.0418
     22 C          63.1126   82.0693   11.2698 C.2     1  UNL1        0.0503
     23 O          63.2561   80.9318   10.3025 O.co2   1  UNL1       -0.5492
     24 O          62.4251   81.8529   12.5853 O.co2   1  UNL1       -0.5492
     25 C          63.9402   92.2126   12.0356 C.3     1  UNL1        0.1337
     26 C          65.3197   92.7223   12.3306 C.3     1  UNL1        0.1000
     27 C          66.2929   92.9437   11.2108 C.ar    1  UNL1       -0.0061
     28 C          66.1357   94.1279   10.3037 C.ar    1  UNL1       -0.0029
     29 C          67.1089   94.3492    9.1840 C.ar    1  UNL1       -0.0003
     30 C          68.2392   93.3863    8.9713 C.ar    1  UNL1       -0.0000
     31 C          68.3963   92.2021    9.8783 C.ar    1  UNL1       -0.0003
     32 C          67.4232   91.9807   10.9981 C.ar    1  UNL1       -0.0029
     33 C          66.8096   94.0094   14.0258 C.3     1  UNL1        0.0861
     34 N          65.7262   93.0105   13.7455 N.3     1  UNL1       -0.2924
     35 H          64.8910   93.3380   14.2309 H       1  UNL1        0.1236
     36 C          64.6867   87.5959   14.3003 C.3     1  UNL1        0.1391
     37 C          63.9241   87.1896   15.5263 C.ar    1  UNL1        0.0319
     38 C          63.4085   88.2356   16.4698 C.ar    1  UNL1        0.1379
     39 F          63.5217   89.3192   16.3767 F       1  UNL1       -0.2044
     40 C          62.6458   87.8293   17.6959 C.ar    1  UNL1        0.0294
     41 C          62.3987   86.3770   17.9785 C.ar    1  UNL1        0.0022
     42 C          62.9142   85.3311   17.0350 C.ar    1  UNL1        0.0037
     43 C          63.6769   85.7373   15.8089 C.ar    1  UNL1        0.0714
     44 C          64.1925   84.6914   14.8655 C.3     1  UNL1        0.4184
     45 F          64.7080   83.6454   13.9220 F       1  UNL1       -0.1659
     46 F          65.6010   85.0815   15.2026 F       1  UNL1       -0.1659
     47 F          62.7839   84.3012   14.5283 F       1  UNL1       -0.1659
@<TRIPOS>UNITY_ATOM_ATTR
23 1
charge -1
@<TRIPOS>BOND
     1    33    34    1
     2    34    26    1
     3    26    25    1
     4    25     1    1
     5     1     2   ar
     6     2     3    2
     7     2     4   ar
     8     4    10    1
     9    10    11   ar
    10    11    12   ar
    11    12    13   ar
    12    13    14   ar
    13    14    17    1
    14    17    18    1
    15    18    19    1
    16    19    20    1
    17    20    21    1
    18    21    22    1
    19    22    23   ar
    20    22    24   ar
    21    14    15   ar
    22    15    16    1
    23     4     5   ar
    24     5     6    1
    25     5     7   ar
    26     7    36    1
    27    36    37    1
    28    37    38   ar
    29    38    39    1
    30    38    40   ar
    31    40    41   ar
    32    41    42   ar
    33    42    43   ar
    34    43    44    1
    35    44    45    1
    36    44    46    1
    37    44    47    1
    38     7     8   ar
    39     8     9    2
    40    26    27    1
    41    27    28   ar
    42    28    29   ar
    43    29    30   ar
    44    30    31   ar
    45    31    32   ar
    46     8     1   ar
    47    32    27   ar
    48    15    10   ar
    49    43    37   ar
    50    34    35    1
@<TRIPOS>MOLECULE
*****
 47 50 0 0 0
SMALL
GASTEIGER

@<TRIPOS>ATOM
      1 N          62.9400   88.9107   13.1161 N.ar    1  UNL1       -0.2470
      2 C          62.0079   88.9566   11.9418 C.ar    1  UNL1        0.2654
      3 O          61.2770   90.2246   11.6134 O.2     1  UNL1       -0.2668
      4 C          61.8068   87.7344   11.0958 C.ar    1  UNL1        0.0703
      5 C          62.5377   86.4663   11.4241 C.ar    1  UNL1        0.0465
      6 C          62.3068   85.6494   10.7349 C.3     1  UNL1        0.0503
      7 N          63.4697   86.4205   12.5985 N.ar    1  UNL1       -0.2806
      8 C          63.6709   87.6426   13.4445 C.ar    1  UNL1        0.3338
      9 O          64.6030   87.5968   14.6189 O.2     1  UNL1       -0.2462
     10 C          60.8747   87.7802    9.9214 C.ar    1  UNL1        0.0362
     11 C          59.9209   86.6487    9.6763 C.ar    1  UNL1        0.0026
     12 C          58.9888   86.6945    8.5019 C.ar    1  UNL1        0.0033
     13 C          59.0105   87.8718    7.5726 C.ar    1  UNL1        0.0392
     14 C          59.9643   89.0033    7.8177 C.ar    1  UNL1        0.1658
     15 C          60.8964   88.9575    8.9921 C.ar    1  UNL1        0.1739
     16 F          61.8501   90.0889    9.2372 F       1  UNL1       -0.2010
     17 O          59.9860   90.1805    6.8885 O.3     1  UNL1       -0.4732
     18 C          59.0838   90.2071    5.6904 C.3     1  UNL1        0.2055
     19 C          58.6478   91.5192    5.1088 C.3     1  UNL1        0.0477
     20 C          59.6503   92.4150    4.4437 C.3     1  UNL1        0.0097
     21 C          59.5136   92.7416    2.9862 C.3     1  UNL1        0.0418
     22 C          60.4383   93.7373    2.3507 C.2     1  UNL1        0.0503
     23 O          61.8095   93.3146    1.9133 O.co2   1  UNL1       -0.5492
     24 O          59.9919   95.1555    2.1526 O.co2   1  UNL1       -0.5492
     25 C          63.1411   90.1329   13.9622 C.3     1  UNL1        0.1337
     26 C          63.9986   91.2578   13.4630 C.3     1  UNL1        0.1000
     27 C          65.2417   91.6418   14.2096 C.ar    1  UNL1       -0.0061
     28 C          65.1511   92.0829   15.6404 C.ar    1  UNL1       -0.0029
     29 C          66.3942   92.4668   16.3869 C.ar    1  UNL1       -0.0003
     30 C          67.7278   92.4096   15.7027 C.ar    1  UNL1       -0.0000
     31 C          67.8184   91.9685   14.2719 C.ar    1  UNL1       -0.0003
     32 C          66.5753   91.5846   13.5254 C.ar    1  UNL1       -0.0029
     33 C          64.2850   91.6777   10.9150 C.3     1  UNL1        0.0861
     34 N          63.6130   91.9989   12.2171 N.3     1  UNL1       -0.2924
     35 H          62.6144   91.8435   12.0792 H       1  UNL1        0.1236
     36 C          64.2006   85.1524   12.9268 C.3     1  UNL1        0.1391
     37 C          63.4453   83.8628   13.0541 C.ar    1  UNL1        0.0319
     38 C          63.4177   82.8936   11.9096 C.ar    1  UNL1        0.1379
     39 F          63.9041   83.0096   10.9372 F       1  UNL1       -0.2044
     40 C          62.6623   81.6040   12.0369 C.ar    1  UNL1        0.0294
     41 C          61.9345   81.2835   13.3087 C.ar    1  UNL1        0.0022
     42 C          61.9620   82.2526   14.4532 C.ar    1  UNL1        0.0037
     43 C          62.7174   83.5423   14.3260 C.ar    1  UNL1        0.0714
     44 C          62.7450   84.5114   15.4705 C.3     1  UNL1        0.4184
     45 F          62.7725   85.4805   16.6150 F       1  UNL1       -0.1659
     46 F          61.2858   84.7932   15.2670 F       1  UNL1       -0.1659
     47 F          64.2041   84.2296   15.6740 F       1  UNL1       -0.1659
@<TRIPOS>UNITY_ATOM_ATTR
23 1
charge -1
@<TRIPOS>BOND
     1    33    34    1
     2    34    26    1
     3    26    25    1
     4    25     1    1
     5     1     2   ar
     6     2     3    2
     7     2     4   ar
     8     4    10    1
     9    10    11   ar
    10    11    12   ar
    11    12    13   ar
    12    13    14   ar
    13    14    17    1
    14    17    18    1
    15    18    19    1
    16    19    20    1
    17    20    21    1
    18    21    22    1
    19    22    23   ar
    20    22    24   ar
    21    14    15   ar
    22    15    16    1
    23     4     5   ar
    24     5     6    1
    25     5     7   ar
    26     7    36    1
    27    36    37    1
    28    37    38   ar
    29    38    39    1
    30    38    40   ar
    31    40    41   ar
    32    41    42   ar
    33    42    43   ar
    34    43    44    1
    35    44    45    1
    36    44    46    1
    37    44    47    1
    38     7     8   ar
    39     8     9    2
    40    26    27    1
    41    27    28   ar
    42    28    29   ar
    43    29    30   ar
    44    30    31   ar
    45    31    32   ar
    46     8     1   ar
    47    32    27   ar
    48    15    10   ar
    49    43    37   ar
    50    34    35    1
@<TRIPOS>MOLECULE
*****
 47 50 0 0 0
SMALL
GASTEIGER

@<TRIPOS>ATOM
      1 N          60.1887   88.4397    9.6934 N.ar    1  UNL1       -0.2470
      2 C          60.8312   87.0859    9.7601 C.ar    1  UNL1        0.2654
      3 O          60.3651   85.9889    8.8494 O.2     1  UNL1       -0.2668
      4 C          61.9396   86.8292   10.7375 C.ar    1  UNL1        0.0703
      5 C          62.4056   87.9263   11.6482 C.ar    1  UNL1        0.0465
      6 C          63.2167   87.6147   12.3121 C.3     1  UNL1        0.0503
      7 N          61.7632   89.2800   11.5814 N.ar    1  UNL1       -0.2806
      8 C          60.6547   89.5368   10.6040 C.ar    1  UNL1        0.3338
      9 O          60.0122   90.8906   10.5373 O.2     1  UNL1       -0.2462
     10 C          62.5821   85.4754   10.8042 C.ar    1  UNL1        0.0362
     11 C          63.3191   84.9355    9.6146 C.ar    1  UNL1        0.0026
     12 C          63.9616   83.5818    9.6813 C.ar    1  UNL1        0.0033
     13 C          63.8672   82.7678   10.9377 C.ar    1  UNL1        0.0392
     14 C          63.1301   83.3076   12.1274 C.ar    1  UNL1        0.1658
     15 C          62.4876   84.6615   12.0606 C.ar    1  UNL1        0.1739
     16 F          61.7506   85.2013   13.2503 F       1  UNL1       -0.2010
     17 O          63.0356   82.4937   13.3838 O.3     1  UNL1       -0.4732
     18 C          63.8714   82.8548   14.5759 C.3     1  UNL1        0.2055
     19 C          63.4096   83.9259   15.5191 C.3     1  UNL1        0.0477
     20 C          64.2108   85.1843   15.6750 C.3     1  UNL1        0.0097
     21 C          63.5462   86.4425   16.1497 C.3     1  UNL1        0.0418
     22 C          62.4890   86.3776   17.2119 C.2     1  UNL1        0.0503
     23 O          62.8465   86.6482   18.6433 O.co2   1  UNL1       -0.5492
     24 O          61.0745   86.0420   16.8427 O.co2   1  UNL1       -0.5492
     25 C          59.0802   88.6965    8.7159 C.3     1  UNL1        0.1337
     26 C          59.3201   88.5182    7.2460 C.3     1  UNL1        0.1000
     27 C          59.2465   89.7002    6.3253 C.ar    1  UNL1       -0.0061
     28 C          60.4988   90.2508    5.7102 C.ar    1  UNL1       -0.0029
     29 C          60.4252   91.4327    4.7895 C.ar    1  UNL1       -0.0003
     30 C          59.0992   92.0639    4.4839 C.ar    1  UNL1       -0.0000
     31 C          57.8469   91.5133    5.0990 C.ar    1  UNL1       -0.0003
     32 C          57.9205   90.3314    6.0197 C.ar    1  UNL1       -0.0029
     33 C          58.8260   85.9702    7.1293 C.3     1  UNL1        0.0861
     34 N          59.6335   87.1581    6.6968 N.3     1  UNL1       -0.2924
     35 H          59.5433   87.2220    5.6828 H       1  UNL1        0.1236
     36 C          62.2292   90.3771   12.4921 C.3     1  UNL1        0.1391
     37 C          63.5576   91.0330   12.2575 C.ar    1  UNL1        0.0319
     38 C          63.8615   91.6570   10.9277 C.ar    1  UNL1        0.1379
     39 F          63.2040   91.6995   10.0550 F       1  UNL1       -0.2044
     40 C          65.1899   92.3130   10.6931 C.ar    1  UNL1        0.0294
     41 C          66.2144   92.3450   11.7882 C.ar    1  UNL1        0.0022
     42 C          65.9105   91.7211   13.1180 C.ar    1  UNL1        0.0037
     43 C          64.5821   91.0651   13.3527 C.ar    1  UNL1        0.0714
     44 C          64.2782   90.4411   14.6824 C.3     1  UNL1        0.4184
     45 F          63.9744   89.8172   16.0122 F       1  UNL1       -0.1659
     46 F          63.5875   91.7002   15.1154 F       1  UNL1       -0.1659
     47 F          64.9689   89.1820   14.2494 F       1  UNL1       -0.1659
@<TRIPOS>UNITY_ATOM_ATTR
23 1
charge -1
@<TRIPOS>BOND
     1    33    34    1
     2    34    26    1
     3    26    25    1
     4    25     1    1
     5     1     2   ar
     6     2     3    2
     7     2     4   ar
     8     4    10    1
     9    10    11   ar
    10    11    12   ar
    11    12    13   ar
    12    13    14   ar
    13    14    17    1
    14    17    18    1
    15    18    19    1
    16    19    20    1
    17    20    21    1
    18    21    22    1
    19    22    23   ar
    20    22    24   ar
    21    14    15   ar
    22    15    16    1
    23     4     5   ar
    24     5     6    1
    25     5     7   ar
    26     7    36    1
    27    36    37    1
    28    37    38   ar
    29    38    39    1
    30    38    40   ar
    31    40    41   ar
    32    41    42   ar
    33    42    43   ar
    34    43    44    1
    35    44    45    1
    36    44    46    1
    37    44    47    1
    38     7     8   ar
    39     8     9    2
    40    26    27    1
    41    27    28   ar
    42    28    29   ar
    43    29    30   ar
    44    30    31   ar
    45    31    32   ar
    46     8     1   ar
    47    32    27   ar
    48    15    10   ar
    49    43    37   ar
    50    34    35    1
@<TRIPOS>MOLECULE
*****
 47 50 0 0 0
SMALL
GASTEIGER

@<TRIPOS>ATOM
      1 N          63.0275   86.6868   12.2108 N.ar    1  UNL1       -0.2470
      2 C          62.1249   86.6880   11.0127 C.ar    1  UNL1        0.2654
      3 O          61.9201   85.4270   10.2267 O.2     1  UNL1       -0.2668
      4 C          61.4272   87.9503   10.6007 C.ar    1  UNL1        0.0703
      5 C          61.6320   89.2113   11.3868 C.ar    1  UNL1        0.0465
      6 C          61.0703   90.0600   10.9868 C.3     1  UNL1        0.0503
      7 N          62.5346   89.2101   12.5848 N.ar    1  UNL1       -0.2806
      8 C          63.2323   87.9478   12.9968 C.ar    1  UNL1        0.3338
      9 O          64.1349   87.9465   14.1949 O.2     1  UNL1       -0.2462
     10 C          60.5246   87.9516    9.4026 C.ar    1  UNL1        0.0362
     11 C          59.5674   86.8177    9.1835 C.ar    1  UNL1        0.0026
     12 C          58.6648   86.8189    7.9855 C.ar    1  UNL1        0.0033
     13 C          58.7194   87.9542    7.0065 C.ar    1  UNL1        0.0392
     14 C          59.6766   89.0881    7.2256 C.ar    1  UNL1        0.1658
     15 C          60.5792   89.0868    8.4237 C.ar    1  UNL1        0.1739
     16 F          61.5364   90.2207    8.6428 F       1  UNL1       -0.2010
     17 O          59.7313   90.2232    6.2466 O.3     1  UNL1       -0.4732
     18 C          58.4746   90.7011    5.5816 C.3     1  UNL1        0.2055
     19 C          58.5317   91.8251    4.5898 C.3     1  UNL1        0.0477
     20 C          59.8387   92.4992    4.2946 C.3     1  UNL1        0.0097
     21 C          60.2242   92.7992    2.8764 C.3     1  UNL1        0.0418
     22 C          61.6661   92.7524    2.4652 C.2     1  UNL1        0.0503
     23 O          62.1213   93.4910    1.2416 O.co2   1  UNL1       -0.5492
     24 O          62.6526   91.9671    3.2775 O.co2   1  UNL1       -0.5492
     25 C          63.7253   85.4245   12.6228 C.3     1  UNL1        0.1337
     26 C          63.1105   84.5319   13.6597 C.3     1  UNL1        0.1000
     27 C          62.8657   83.0840   13.3532 C.ar    1  UNL1       -0.0061
     28 C          62.2395   82.1943   14.3857 C.ar    1  UNL1       -0.0029
     29 C          61.9947   80.7465   14.0792 C.ar    1  UNL1       -0.0003
     30 C          62.3761   80.1885   12.7401 C.ar    1  UNL1       -0.0000
     31 C          63.0023   81.0783   11.7075 C.ar    1  UNL1       -0.0003
     32 C          63.2471   82.5260   12.0141 C.ar    1  UNL1       -0.0029
     33 C          63.7992   85.3001   16.0442 C.3     1  UNL1        0.0861
     34 N          62.7404   85.0870   15.0032 N.3     1  UNL1       -0.2924
     35 H          62.3041   85.9939   14.8370 H       1  UNL1        0.1236
     36 C          62.7394   90.4711   13.3708 C.3     1  UNL1        0.1391
     37 C          64.0695   91.1640   13.3440 C.ar    1  UNL1        0.0319
     38 C          64.6604   91.6028   12.0369 C.ar    1  UNL1        0.1379
     39 F          64.2240   91.4771   11.0422 F       1  UNL1       -0.2044
     40 C          65.9905   92.2956   12.0100 C.ar    1  UNL1        0.0294
     41 C          66.7298   92.5497   13.2902 C.ar    1  UNL1        0.0022
     42 C          66.1390   92.1108   14.5973 C.ar    1  UNL1        0.0037
     43 C          64.8089   91.4180   14.6242 C.ar    1  UNL1        0.0714
     44 C          64.2181   90.9792   15.9312 C.3     1  UNL1        0.4184
     45 F          63.6273   90.5404   17.2382 F       1  UNL1       -0.1659
     46 F          63.8930   92.4054   16.2631 F       1  UNL1       -0.1659
     47 F          64.5432   89.5530   15.5993 F       1  UNL1       -0.1659
@<TRIPOS>UNITY_ATOM_ATTR
23 1
charge -1
@<TRIPOS>BOND
     1    33    34    1
     2    34    26    1
     3    26    25    1
     4    25     1    1
     5     1     2   ar
     6     2     3    2
     7     2     4   ar
     8     4    10    1
     9    10    11   ar
    10    11    12   ar
    11    12    13   ar
    12    13    14   ar
    13    14    17    1
    14    17    18    1
    15    18    19    1
    16    19    20    1
    17    20    21    1
    18    21    22    1
    19    22    23   ar
    20    22    24   ar
    21    14    15   ar
    22    15    16    1
    23     4     5   ar
    24     5     6    1
    25     5     7   ar
    26     7    36    1
    27    36    37    1
    28    37    38   ar
    29    38    39    1
    30    38    40   ar
    31    40    41   ar
    32    41    42   ar
    33    42    43   ar
    34    43    44    1
    35    44    45    1
    36    44    46    1
    37    44    47    1
    38     7     8   ar
    39     8     9    2
    40    26    27    1
    41    27    28   ar
    42    28    29   ar
    43    29    30   ar
    44    30    31   ar
    45    31    32   ar
    46     8     1   ar
    47    32    27   ar
    48    15    10   ar
    49    43    37   ar
    50    34    35    1
