@<TRIPOS>MOLECULE
*****
 21 23 0 0 0
SMALL
GASTEIGER

@<TRIPOS>ATOM
      1 C          60.4142   87.8211   11.0527 C.3     1  UNL1        0.0534
      2 C          61.3539   86.6519   11.0587 C.ar    1  UNL1        0.0741
      3 N          61.9720   86.0237   12.2724 N.ar    1  UNL1       -0.2283
      4 C          62.8405   84.8891   11.8157 C.ar    1  UNL1        0.1818
      5 C          63.6949   83.9131   12.5689 C.ar    1  UNL1        0.1733
      6 C          64.4680   82.8640   11.8261 C.ar    1  UNL1        0.0416
      7 C          64.3867   82.7910   10.3301 C.ar    1  UNL1        0.0222
      8 C          63.5322   83.7671    9.5769 C.ar    1  UNL1        0.0813
      9 N          62.7592   84.8161   10.3198 N.ar    1  UNL1       -0.2894
     10 C          61.8404   85.9056    9.8518 C.ar    1  UNL1        0.0716
     11 O          63.7763   83.9861   14.0650 O.3     1  UNL1       -0.4676
     12 C          64.7169   84.9546   14.7185 C.3     1  UNL1        0.2321
     13 C          64.1833   86.1990   15.3638 C.ar    1  UNL1        0.0212
     14 C          63.4248   86.1083   16.6549 C.ar    1  UNL1       -0.0007
     15 C          62.8912   87.3528   17.3002 C.ar    1  UNL1       -0.0002
     16 C          63.1159   88.6880   16.6546 C.ar    1  UNL1       -0.0000
     17 C          63.8742   88.7787   15.3636 C.ar    1  UNL1       -0.0002
     18 C          64.4080   87.5342   14.7182 C.ar    1  UNL1       -0.0007
     19 C          61.4726   86.1974    8.4272 C.3     1  UNL1        0.1504
     20 C          60.0403   86.4466    8.0583 C.1     1  UNL1        0.0796
     21 N          58.6078   86.6958    7.6893 N.1     1  UNL1       -0.1955
@<TRIPOS>BOND
     1     1     2    1
     2     2     3   ar
     3     3     4   ar
     4     4     5   ar
     5     5    11    1
     6    11    12    1
     7    12    13    1
     8    13    14   ar
     9    14    15   ar
    10    15    16   ar
    11    16    17   ar
    12    17    18   ar
    13     5     6   ar
    14     6     7   ar
    15     7     8   ar
    16     8     9   ar
    17     9    10   ar
    18    10    19    1
    19    19    20    1
    20    20    21    3
    21    10     2   ar
    22     9     4   ar
    23    18    13   ar
@<TRIPOS>MOLECULE
*****
 21 23 0 0 0
SMALL
GASTEIGER

@<TRIPOS>ATOM
      1 C          63.8417   90.4070   16.4628 C.3     1  UNL1        0.0534
      2 C          63.6051   90.4750   14.9830 C.ar    1  UNL1        0.0741
      3 N          62.5457   89.7319   14.2245 N.ar    1  UNL1       -0.2283
      4 C          62.6723   90.0957   12.7747 C.ar    1  UNL1        0.1818
      5 C          61.8986   89.6707   11.5620 C.ar    1  UNL1        0.1733
      6 C          62.2625   90.2135   10.2119 C.ar    1  UNL1        0.0416
      7 C          63.4000   91.1815   10.0745 C.ar    1  UNL1        0.0222
      8 C          64.1737   91.6066   11.2873 C.ar    1  UNL1        0.0813
      9 N          63.8098   91.0637   12.6374 N.ar    1  UNL1       -0.2894
     10 C          64.3863   91.2981   14.0022 C.ar    1  UNL1        0.0716
     11 O          60.7609   88.7026   11.6994 O.3     1  UNL1       -0.4676
     12 C          60.4577   87.7394   10.5903 C.3     1  UNL1        0.2321
     13 C          61.4200   86.6333   10.2734 C.ar    1  UNL1        0.0212
     14 C          61.9498   86.4766    8.8788 C.ar    1  UNL1       -0.0007
     15 C          62.9121   85.3705    8.5619 C.ar    1  UNL1       -0.0002
     16 C          63.3448   84.4212    9.6396 C.ar    1  UNL1       -0.0000
     17 C          62.8151   84.5778   11.0342 C.ar    1  UNL1       -0.0002
     18 C          61.8527   85.6840   11.3511 C.ar    1  UNL1       -0.0007
     19 C          65.5414   92.1977   14.3287 C.3     1  UNL1        0.1504
     20 C          66.8447   92.0382   13.6035 C.1     1  UNL1        0.0796
     21 N          68.1481   91.8787   12.8783 N.1     1  UNL1       -0.1955
@<TRIPOS>BOND
     1     1     2    1
     2     2     3   ar
     3     3     4   ar
     4     4     5   ar
     5     5    11    1
     6    11    12    1
     7    12    13    1
     8    13    14   ar
     9    14    15   ar
    10    15    16   ar
    11    16    17   ar
    12    17    18   ar
    13     5     6   ar
    14     6     7   ar
    15     7     8   ar
    16     8     9   ar
    17     9    10   ar
    18    10    19    1
    19    19    20    1
    20    20    21    3
    21    10     2   ar
    22     9     4   ar
    23    18    13   ar
@<TRIPOS>MOLECULE
*****
 21 23 0 0 0
SMALL
GASTEIGER

@<TRIPOS>ATOM
      1 C          62.3972   84.4551   11.4984 C.3     1  UNL1        0.0534
      2 C          62.5001   85.9490   11.4103 C.ar    1  UNL1        0.0741
      3 N          63.0148   86.8622   12.4832 N.ar    1  UNL1       -0.2283
      4 C          62.9391   88.2696   11.9696 C.ar    1  UNL1        0.1818
      5 C          63.3089   89.5850   12.5884 C.ar    1  UNL1        0.1733
      6 C          63.1173   90.8570   11.8169 C.ar    1  UNL1        0.0416
      7 C          62.5559   90.8136   10.4266 C.ar    1  UNL1        0.0222
      8 C          62.1861   89.4982    9.8079 C.ar    1  UNL1        0.0813
      9 N          62.3777   88.2262   10.5794 N.ar    1  UNL1       -0.2894
     10 C          62.1064   86.7920   10.2336 C.ar    1  UNL1        0.0716
     11 O          63.8704   89.6284   13.9787 O.3     1  UNL1       -0.4676
     12 C          64.0442   90.9447   14.6766 C.3     1  UNL1        0.2321
     13 C          65.4116   91.5455   14.8150 C.ar    1  UNL1        0.0212
     14 C          66.4151   91.3883   13.7111 C.ar    1  UNL1       -0.0007
     15 C          67.7825   91.9891   13.8495 C.ar    1  UNL1       -0.0002
     16 C          68.1465   92.7471   15.0916 C.ar    1  UNL1       -0.0000
     17 C          67.1431   92.9043   16.1954 C.ar    1  UNL1       -0.0002
     18 C          65.7756   92.3035   16.0571 C.ar    1  UNL1       -0.0007
     19 C          61.5406   86.2891    8.9387 C.3     1  UNL1        0.1504
     20 C          60.1380   86.6454    8.5443 C.1     1  UNL1        0.0796
     21 N          58.7352   87.0018    8.1498 N.1     1  UNL1       -0.1955
@<TRIPOS>BOND
     1     1     2    1
     2     2     3   ar
     3     3     4   ar
     4     4     5   ar
     5     5    11    1
     6    11    12    1
     7    12    13    1
     8    13    14   ar
     9    14    15   ar
    10    15    16   ar
    11    16    17   ar
    12    17    18   ar
    13     5     6   ar
    14     6     7   ar
    15     7     8   ar
    16     8     9   ar
    17     9    10   ar
    18    10    19    1
    19    19    20    1
    20    20    21    3
    21    10     2   ar
    22     9     4   ar
    23    18    13   ar
@<TRIPOS>MOLECULE
*****
 21 23 0 0 0
SMALL
GASTEIGER

@<TRIPOS>ATOM
      1 C          62.6990   83.9303   14.8482 C.3     1  UNL1        0.0534
      2 C          62.7145   84.3198   13.3996 C.ar    1  UNL1        0.0741
      3 N          62.1346   85.5748   12.8178 N.ar    1  UNL1       -0.2283
      4 C          62.3743   85.5531   11.3372 C.ar    1  UNL1        0.1818
      5 C          62.0237   86.5246   10.2493 C.ar    1  UNL1        0.1733
      6 C          62.4011   86.2276    8.8283 C.ar    1  UNL1        0.0416
      7 C          63.1291   84.9592    8.4952 C.ar    1  UNL1        0.0222
      8 C          63.4797   83.9877    9.5830 C.ar    1  UNL1        0.0813
      9 N          63.1023   84.2847   11.0040 N.ar    1  UNL1       -0.2894
     10 C          63.3126   83.5224   12.2786 C.ar    1  UNL1        0.0716
     11 O          61.2957   87.7931   10.5826 O.3     1  UNL1       -0.4676
     12 C          61.7709   89.1002   10.0209 C.3     1  UNL1        0.2321
     13 C          62.7224   89.9527   10.8070 C.ar    1  UNL1        0.0212
     14 C          63.3585   91.1516   10.1681 C.ar    1  UNL1       -0.0007
     15 C          64.3100   92.0041   10.9541 C.ar    1  UNL1       -0.0002
     16 C          64.6253   91.6578   12.3791 C.ar    1  UNL1       -0.0000
     17 C          63.9892   90.4590   13.0181 C.ar    1  UNL1       -0.0002
     18 C          63.0377   89.6064   12.2320 C.ar    1  UNL1       -0.0007
     19 C          64.0002   82.1957   12.4093 C.3     1  UNL1        0.1504
     20 C          63.2089   80.9729   12.7677 C.1     1  UNL1        0.0796
     21 N          62.4175   79.7500   13.1261 N.1     1  UNL1       -0.1955
@<TRIPOS>BOND
     1     1     2    1
     2     2     3   ar
     3     3     4   ar
     4     4     5   ar
     5     5    11    1
     6    11    12    1
     7    12    13    1
     8    13    14   ar
     9    14    15   ar
    10    15    16   ar
    11    16    17   ar
    12    17    18   ar
    13     5     6   ar
    14     6     7   ar
    15     7     8   ar
    16     8     9   ar
    17     9    10   ar
    18    10    19    1
    19    19    20    1
    20    20    21    3
    21    10     2   ar
    22     9     4   ar
    23    18    13   ar
@<TRIPOS>MOLECULE
*****
 21 23 0 0 0
SMALL
GASTEIGER

@<TRIPOS>ATOM
      1 C          66.4981   94.7671   10.8593 C.3     1  UNL1        0.0534
      2 C          65.7755   93.5894   11.4433 C.ar    1  UNL1        0.0741
      3 N          64.8526   92.6663   10.7044 N.ar    1  UNL1       -0.2283
      4 C          64.3556   91.6345   11.6733 C.ar    1  UNL1        0.1818
      5 C          63.4220   90.4719   11.5102 C.ar    1  UNL1        0.1733
      6 C          63.1041   89.5948   12.6848 C.ar    1  UNL1        0.0416
      7 C          63.7199   89.8803   14.0224 C.ar    1  UNL1        0.0222
      8 C          64.6536   91.0429   14.1854 C.ar    1  UNL1        0.0813
      9 N          64.9714   91.9200   13.0109 N.ar    1  UNL1       -0.2894
     10 C          65.8489   93.1282   12.8688 C.ar    1  UNL1        0.0716
     11 O          62.8061   90.1864   10.1726 O.3     1  UNL1       -0.4676
     12 C          61.3789   89.7331   10.0853 C.3     1  UNL1        0.2321
     13 C          61.0345   88.4796    9.3370 C.ar    1  UNL1        0.0212
     14 C          59.7864   88.4205    8.5070 C.ar    1  UNL1       -0.0007
     15 C          59.4420   87.1670    7.7586 C.ar    1  UNL1       -0.0002
     16 C          60.3456   85.9725    7.8403 C.ar    1  UNL1       -0.0000
     17 C          61.5937   86.0315    8.6702 C.ar    1  UNL1       -0.0002
     18 C          61.9381   87.2851    9.4186 C.ar    1  UNL1       -0.0007
     19 C          66.6579   93.7637   13.9604 C.3     1  UNL1        0.1504
     20 C          67.4784   92.9091   14.8804 C.1     1  UNL1        0.0796
     21 N          68.2990   92.0544   15.8004 N.1     1  UNL1       -0.1955
@<TRIPOS>BOND
     1     1     2    1
     2     2     3   ar
     3     3     4   ar
     4     4     5   ar
     5     5    11    1
     6    11    12    1
     7    12    13    1
     8    13    14   ar
     9    14    15   ar
    10    15    16   ar
    11    16    17   ar
    12    17    18   ar
    13     5     6   ar
    14     6     7   ar
    15     7     8   ar
    16     8     9   ar
    17     9    10   ar
    18    10    19    1
    19    19    20    1
    20    20    21    3
    21    10     2   ar
    22     9     4   ar
    23    18    13   ar
@<TRIPOS>MOLECULE
*****
 21 23 0 0 0
SMALL
GASTEIGER

@<TRIPOS>ATOM
      1 C          64.5549   87.2555   15.1791 C.3     1  UNL1        0.0534
      2 C          64.0524   88.0041   13.9803 C.ar    1  UNL1        0.0741
      3 N          63.2751   87.4200   12.8382 N.ar    1  UNL1       -0.2283
      4 C          62.9812   88.5232   11.8652 C.ar    1  UNL1        0.1818
      5 C          62.2482   88.5386   10.5566 C.ar    1  UNL1        0.1733
      6 C          62.1109   89.8198    9.7888 C.ar    1  UNL1        0.0416
      7 C          62.7066   91.0857   10.3296 C.ar    1  UNL1        0.0222
      8 C          63.4396   91.0704   11.6382 C.ar    1  UNL1        0.0813
      9 N          63.5769   89.7891   12.4060 N.ar    1  UNL1       -0.2894
     10 C          64.2389   89.4684   13.7132 C.ar    1  UNL1        0.0716
     11 O          61.6525   87.2726   10.0157 O.3     1  UNL1       -0.4676
     12 C          61.3899   86.1155   10.9335 C.3     1  UNL1        0.2321
     13 C          62.3436   84.9585   10.9735 C.ar    1  UNL1        0.0212
     14 C          63.1180   84.5820    9.7452 C.ar    1  UNL1       -0.0007
     15 C          64.0718   83.4250    9.7853 C.ar    1  UNL1       -0.0002
     16 C          64.2513   82.6445   11.0536 C.ar    1  UNL1       -0.0000
     17 C          63.4769   83.0210   12.2818 C.ar    1  UNL1       -0.0002
     18 C          62.5231   84.1780   12.2418 C.ar    1  UNL1       -0.0007
     19 C          64.9608   90.4410   14.5980 C.3     1  UNL1        0.1504
     20 C          64.2080   91.1976   15.6520 C.1     1  UNL1        0.0796
     21 N          63.4552   91.9543   16.7060 N.1     1  UNL1       -0.1955
@<TRIPOS>BOND
     1     1     2    1
     2     2     3   ar
     3     3     4   ar
     4     4     5   ar
     5     5    11    1
     6    11    12    1
     7    12    13    1
     8    13    14   ar
     9    14    15   ar
    10    15    16   ar
    11    16    17   ar
    12    17    18   ar
    13     5     6   ar
    14     6     7   ar
    15     7     8   ar
    16     8     9   ar
    17     9    10   ar
    18    10    19    1
    19    19    20    1
    20    20    21    3
    21    10     2   ar
    22     9     4   ar
    23    18    13   ar
@<TRIPOS>MOLECULE
*****
 21 23 0 0 0
SMALL
GASTEIGER

@<TRIPOS>ATOM
      1 C          61.2292   87.0812    9.2818 C.3     1  UNL1        0.0534
      2 C          61.9929   87.2702   10.5590 C.ar    1  UNL1        0.0741
      3 N          62.3880   88.5848   11.1637 N.ar    1  UNL1       -0.2283
      4 C          63.1348   88.3048   12.4342 C.ar    1  UNL1        0.1818
      5 C          63.7629   89.2122   13.4500 C.ar    1  UNL1        0.1733
      6 C          64.4574   88.6321   14.6463 C.ar    1  UNL1        0.0416
      7 C          64.5239   87.1445   14.8266 C.ar    1  UNL1        0.0222
      8 C          63.8958   86.2371   13.8108 C.ar    1  UNL1        0.0813
      9 N          63.2012   86.8172   12.6145 N.ar    1  UNL1       -0.2894
     10 C          62.4955   86.1778   11.4556 C.ar    1  UNL1        0.0716
     11 O          63.6964   90.6999   13.2696 O.3     1  UNL1       -0.4676
     12 C          64.9196   91.4598   12.8495 C.3     1  UNL1        0.2321
     13 C          65.9455   91.8534   13.8705 C.ar    1  UNL1        0.0212
     14 C          67.3919   91.9449   13.4837 C.ar    1  UNL1       -0.0007
     15 C          68.4179   92.3384   14.5048 C.ar    1  UNL1       -0.0002
     16 C          67.9974   92.6405   15.9126 C.ar    1  UNL1       -0.0000
     17 C          66.5511   92.5490   16.2994 C.ar    1  UNL1       -0.0002
     18 C          65.5251   92.1555   15.2784 C.ar    1  UNL1       -0.0007
     19 C          62.3227   84.7045   11.2326 C.3     1  UNL1        0.1504
     20 C          63.5099   83.8532   10.8922 C.1     1  UNL1        0.0796
     21 N          64.6971   83.0017   10.5519 N.1     1  UNL1       -0.1955
@<TRIPOS>BOND
     1     1     2    1
     2     2     3   ar
     3     3     4   ar
     4     4     5   ar
     5     5    11    1
     6    11    12    1
     7    12    13    1
     8    13    14   ar
     9    14    15   ar
    10    15    16   ar
    11    16    17   ar
    12    17    18   ar
    13     5     6   ar
    14     6     7   ar
    15     7     8   ar
    16     8     9   ar
    17     9    10   ar
    18    10    19    1
    19    19    20    1
    20    20    21    3
    21    10     2   ar
    22     9     4   ar
    23    18    13   ar
@<TRIPOS>MOLECULE
*****
 21 23 0 0 0
SMALL
GASTEIGER

@<TRIPOS>ATOM
      1 C          64.9889   90.0866   14.5779 C.3     1  UNL1        0.0534
      2 C          64.1122   89.7101   13.4204 C.ar    1  UNL1        0.0741
      3 N          63.4682   88.3734   13.2004 N.ar    1  UNL1       -0.2283
      4 C          62.6836   88.4414   11.9237 C.ar    1  UNL1        0.1818
      5 C          61.8448   87.4260   11.2058 C.ar    1  UNL1        0.1733
      6 C          61.1653   87.7892    9.9189 C.ar    1  UNL1        0.0416
      7 C          61.3244   89.1679    9.3499 C.ar    1  UNL1        0.0222
      8 C          62.1632   90.1834   10.0678 C.ar    1  UNL1        0.0813
      9 N          62.8428   89.8201   11.3547 N.ar    1  UNL1       -0.2894
     10 C          63.7257   90.6042   12.2797 C.ar    1  UNL1        0.0716
     11 O          61.6857   86.0472   11.7749 O.3     1  UNL1       -0.4676
     12 C          62.7345   85.0054   11.5209 C.3     1  UNL1        0.2321
     13 C          62.7061   83.7119   12.2800 C.ar    1  UNL1        0.0212
     14 C          62.5032   83.7188   13.7662 C.ar    1  UNL1       -0.0007
     15 C          62.4748   82.4254   14.5253 C.ar    1  UNL1       -0.0002
     16 C          62.6494   81.1251   13.7982 C.ar    1  UNL1       -0.0000
     17 C          62.8523   81.1182   12.3120 C.ar    1  UNL1       -0.0002
     18 C          62.8807   82.4116   11.5529 C.ar    1  UNL1       -0.0007
     19 C          64.1480   92.0318   12.0962 C.3     1  UNL1        0.1504
     20 C          65.6028   92.3727   11.9654 C.1     1  UNL1        0.0796
     21 N          67.0578   92.7136   11.8347 N.1     1  UNL1       -0.1955
@<TRIPOS>BOND
     1     1     2    1
     2     2     3   ar
     3     3     4   ar
     4     4     5   ar
     5     5    11    1
     6    11    12    1
     7    12    13    1
     8    13    14   ar
     9    14    15   ar
    10    15    16   ar
    11    16    17   ar
    12    17    18   ar
    13     5     6   ar
    14     6     7   ar
    15     7     8   ar
    16     8     9   ar
    17     9    10   ar
    18    10    19    1
    19    19    20    1
    20    20    21    3
    21    10     2   ar
    22     9     4   ar
    23    18    13   ar
@<TRIPOS>MOLECULE
*****
 21 23 0 0 0
SMALL
GASTEIGER

@<TRIPOS>ATOM
      1 C          62.4281   84.5162   11.4944 C.3     1  UNL1        0.0534
      2 C          62.4486   86.0074   11.3332 C.ar    1  UNL1        0.0741
      3 N          62.9074   86.9991   12.3608 N.ar    1  UNL1       -0.2283
      4 C          62.7563   88.3733   11.7787 C.ar    1  UNL1        0.1818
      5 C          63.0502   89.7359   12.3327 C.ar    1  UNL1        0.1733
      6 C          62.7919   90.9560   11.4994 C.ar    1  UNL1        0.0416
      7 C          62.2397   90.8136   10.1121 C.ar    1  UNL1        0.0222
      8 C          61.9458   89.4510    9.5581 C.ar    1  UNL1        0.0813
      9 N          62.2041   88.2309   10.3913 N.ar    1  UNL1       -0.2894
     10 C          62.0139   86.7687   10.1160 C.ar    1  UNL1        0.0716
     11 O          63.6025   89.8783   13.7201 O.3     1  UNL1       -0.4676
     12 C          64.4866   88.8083   14.2889 C.3     1  UNL1        0.2321
     13 C          63.9734   87.9104   15.3753 C.ar    1  UNL1        0.0212
     14 C          63.2149   88.4906   16.5321 C.ar    1  UNL1       -0.0007
     15 C          62.7017   87.5927   17.6185 C.ar    1  UNL1       -0.0002
     16 C          62.9471   86.1145   17.5483 C.ar    1  UNL1       -0.0000
     17 C          63.7055   85.5343   16.3915 C.ar    1  UNL1       -0.0002
     18 C          64.2187   86.4322   15.3050 C.ar    1  UNL1       -0.0007
     19 C          61.4824   86.1724    8.8464 C.3     1  UNL1        0.1504
     20 C          60.0933   86.5026    8.3868 C.1     1  UNL1        0.0796
     21 N          58.7040   86.8328    7.9271 N.1     1  UNL1       -0.1955
@<TRIPOS>BOND
     1     1     2    1
     2     2     3   ar
     3     3     4   ar
     4     4     5   ar
     5     5    11    1
     6    11    12    1
     7    12    13    1
     8    13    14   ar
     9    14    15   ar
    10    15    16   ar
    11    16    17   ar
    12    17    18   ar
    13     5     6   ar
    14     6     7   ar
    15     7     8   ar
    16     8     9   ar
    17     9    10   ar
    18    10    19    1
    19    19    20    1
    20    20    21    3
    21    10     2   ar
    22     9     4   ar
    23    18    13   ar
