@<TRIPOS>MOLECULE
*****
 39 41 0 0 0
SMALL
GASTEIGER

@<TRIPOS>ATOM
      1 C          63.4927   90.8839   13.0016 C.3     0  UNK0        0.1497
      2 N          62.1342   90.3442   12.6652 N.am    0  UNK0       -0.2826
      3 C          61.9979   89.2059   11.6978 C.2     0  UNK0        0.3013
      4 O          63.2200   88.6075   11.0668 O.2     0  UNK0       -0.2528
      5 N          60.6394   88.6661   11.3614 N.am    1  LYS1       -0.2857
      6 H          61.3321   90.7369   13.0794 H       0  UNK0        0.1514
      7 H          59.8372   89.0589   11.7756 H       1  LYS1        0.1513
      8 CA         60.5031   87.5280   10.3940 C.3     1  LYS1        0.1095
      9 C          59.9426   87.7710    9.0241 C.2     1  LYS1        0.0682
     10 O          59.1742   86.6889    8.3252 O.co2   1  LYS1       -0.5475
     11 OXT        60.1506   89.0964    8.3530 O.co2   1  LYS1       -0.5475
     12 CB         60.9273   86.1466   10.7965 C.3     1  LYS1        0.0254
     13 CG         62.2206   85.5813   10.2888 C.3     1  LYS1        0.0035
     14 CD         62.8565   84.4170   10.9889 C.3     1  LYS1        0.0169
     15 CE         63.8235   83.5369   10.2538 C.3     1  LYS1        0.0651
     16 NZ         64.9736   82.9111   10.9857 N.3     1  LYS1       -0.3211
     17 HZ1        65.6128   83.6405   11.3016 H       1  LYS1        0.1189
     18 HZ2        65.4673   82.2734   10.3613 H       1  LYS1        0.1189
     19 N          65.6456   92.1566   12.2978 N.am    0  UNK0       -0.3046
     20 C          64.2918   91.6071   11.9583 C.2     0  UNK0        0.2403
     21 O          63.7370   91.7809   10.5755 O.2     0  UNK0       -0.2733
     22 H          66.0096   92.0425   13.2054 H       0  UNK0        0.1494
     23 C          66.9924   96.0940    9.9170 C.3     0  UNK0        0.0001
     24 C          67.3543   94.6397    9.8525 C.3     0  UNK0        0.0016
     25 C          68.3419   94.0179    8.9102 C.3     0  UNK0        0.0001
     26 C          68.3901   92.5459    9.1944 C.3     0  UNK0        0.0016
     27 C          67.4323   92.2579   10.3123 C.3     0  UNK0        0.0180
     28 C          66.4447   92.8798   11.2546 C.3     0  UNK0        0.0715
     29 C          66.3965   94.3519   10.9705 C.3     0  UNK0        0.0196
     30 C          66.7921   93.5520   10.7190 C.3     0  UNK0        0.0016
     31 C          65.9117   93.0160   11.8088 C.3     0  UNK0        0.0001
     32 C          65.8664   94.3981   11.5420 C.3     0  UNK0        0.0001
     33 C          64.0521   90.7005   14.3813 C.3     0  UNK0        0.0290
     34 C          63.8722   89.3940   15.0959 C.3     0  UNK0        0.0021
     35 C          64.3875   88.1261   14.4819 C.3     0  UNK0        0.0001
     36 C          64.2077   86.8196   15.1965 C.3     0  UNK0        0.0000
     37 C          63.5125   86.7810   16.5252 C.3     0  UNK0        0.0000
     38 C          62.9972   88.0488   17.1392 C.3     0  UNK0        0.0000
     39 C          63.1770   89.3553   16.4245 C.3     0  UNK0        0.0001
@<TRIPOS>UNITY_ATOM_ATTR
10 1
charge -1
@<TRIPOS>BOND
     1    23    24    1
     2    24    25    1
     3    25    26    1
     4    26    27    1
     5    27    28    1
     6    28    19    1
     7    19    20   am
     8    20    21    2
     9    20     1    1
    10     1    33    1
    11    33    34    1
    12    34    35    1
    13    35    36    1
    14    36    37    1
    15    37    38    1
    16    38    39    1
    17     1     2    1
    18     2     3   am
    19     3     4    2
    20     3     5   am
    21     5     8    1
    22     8    12    1
    23    12    13    1
    24    13    14    1
    25    14    15    1
    26    15    16    1
    27     8     9    1
    28     9    10   ar
    29     9    11   ar
    30    28    29    1
    31    27    30    1
    32    30    31    1
    33    30    32    1
    34    29    24    1
    35    30    24    1
    36    39    34    1
    37    19    22    1
    38     2     6    1
    39     5     7    1
    40    16    17    1
    41    16    18    1
@<TRIPOS>MOLECULE
*****
 39 41 0 0 0
SMALL
GASTEIGER

@<TRIPOS>ATOM
      1 C          63.0070   88.9215   12.2101 C.3     0  UNK0        0.1497
      2 N          62.7590   89.1875   10.7549 N.am    0  UNK0       -0.2826
      3 C          61.4743   88.7443   10.1198 C.2     0  UNK0        0.3013
      4 O          60.4378   88.0351   10.9399 O.2     0  UNK0       -0.2528
      5 N          61.2262   89.0104    8.6646 N.am    1  LYS1       -0.2857
      6 H          63.4393   89.6530   10.2166 H       0  UNK0        0.1514
      7 H          61.9065   89.4759    8.1263 H       1  LYS1        0.1513
      8 CA         59.9416   88.5672    8.0295 C.3     1  LYS1        0.1095
      9 C          59.5989   87.1081    7.9696 C.2     1  LYS1        0.0682
     10 O          60.6899   86.0793    8.0056 O.co2   1  LYS1       -0.5475
     11 OXT        58.1651   86.6778    7.8735 O.co2   1  LYS1       -0.5475
     12 CB         58.9997   89.5831    7.4544 C.3     1  LYS1        0.0254
     13 CG         58.9440   89.7992    5.9711 C.3     1  LYS1        0.0035
     14 CD         58.5864   91.1488    5.4227 C.3     1  LYS1        0.0169
     15 CE         57.1977   91.4099    4.9193 C.3     1  LYS1        0.0651
     16 NZ         56.0795   90.4804    5.2874 N.3     1  LYS1       -0.3211
     17 HZ1        56.2447   89.5662    4.8663 H       1  LYS1        0.1189
     18 HZ2        55.1964   90.8582    4.9442 H       1  LYS1        0.1189
     19 N          62.4920   86.3852   11.9822 N.am    0  UNK0       -0.3046
     20 C          63.1760   87.5127   12.6969 C.2     0  UNK0        0.2403
     21 O          64.0290   87.2316   13.8983 O.2     0  UNK0       -0.2733
     22 H          61.9321   86.5698   11.1937 H       0  UNK0        0.1494
     23 C          63.2840   81.7032   11.3210 C.3     0  UNK0        0.0001
     24 C          63.0280   82.5777   12.5125 C.3     0  UNK0        0.0016
     25 C          62.9539   82.1233   13.9401 C.3     0  UNK0        0.0001
     26 C          62.6813   83.3249   14.7955 C.3     0  UNK0        0.0016
     27 C          62.5868   84.5220   13.8965 C.3     0  UNK0        0.0180
     28 C          62.6609   84.9765   12.4690 C.3     0  UNK0        0.0715
     29 C          62.9335   83.7748   11.6135 C.3     0  UNK0        0.0196
     30 C          62.8011   84.0602   12.4856 C.3     0  UNK0        0.0016
     31 C          62.6637   85.3910   11.8072 C.3     0  UNK0        0.0001
     32 C          62.9196   84.2627   11.0040 C.3     0  UNK0        0.0001
     33 C          63.0862   90.0642   13.1786 C.3     0  UNK0        0.0290
     34 C          64.3524   90.8595   13.2984 C.3     0  UNK0        0.0021
     35 C          64.7170   91.8534   12.2357 C.3     0  UNK0        0.0001
     36 C          65.9832   92.6488   12.3554 C.3     0  UNK0        0.0000
     37 C          66.8847   92.4502   13.5378 C.3     0  UNK0        0.0000
     38 C          66.5200   91.4563   14.6004 C.3     0  UNK0        0.0000
     39 C          65.2538   90.6610   14.4807 C.3     0  UNK0        0.0001
@<TRIPOS>UNITY_ATOM_ATTR
10 1
charge -1
@<TRIPOS>BOND
     1    23    24    1
     2    24    25    1
     3    25    26    1
     4    26    27    1
     5    27    28    1
     6    28    19    1
     7    19    20   am
     8    20    21    2
     9    20     1    1
    10     1    33    1
    11    33    34    1
    12    34    35    1
    13    35    36    1
    14    36    37    1
    15    37    38    1
    16    38    39    1
    17     1     2    1
    18     2     3   am
    19     3     4    2
    20     3     5   am
    21     5     8    1
    22     8    12    1
    23    12    13    1
    24    13    14    1
    25    14    15    1
    26    15    16    1
    27     8     9    1
    28     9    10   ar
    29     9    11   ar
    30    28    29    1
    31    27    30    1
    32    30    31    1
    33    30    32    1
    34    29    24    1
    35    30    24    1
    36    39    34    1
    37    19    22    1
    38     2     6    1
    39     5     7    1
    40    16    17    1
    41    16    18    1
@<TRIPOS>MOLECULE
*****
 39 41 0 0 0
SMALL
GASTEIGER

@<TRIPOS>ATOM
      1 C          62.0987   88.2514   11.1714 C.3     0  UNK0        0.1497
      2 N          62.1029   89.4836   12.0267 N.am    0  UNK0       -0.2826
      3 C          63.0736   89.6039   13.1640 C.2     0  UNK0        0.3013
      4 O          64.0399   88.4918   13.4461 O.2     0  UNK0       -0.2528
      5 N          63.0779   90.8361   14.0193 N.am    1  LYS1       -0.2857
      6 H          61.4687   90.2135   11.8416 H       0  UNK0        0.1514
      7 H          62.4436   91.5660   13.8342 H       1  LYS1        0.1513
      8 CA         64.0485   90.9563   15.1565 C.3     1  LYS1        0.1095
      9 C          65.4068   91.5486   14.9239 C.2     1  LYS1        0.0682
     10 O          66.0311   92.4263   15.9678 O.co2   1  LYS1       -0.5475
     11 OXT        66.1409   91.2631   13.6473 O.co2   1  LYS1       -0.5475
     12 CB         63.6607   90.4842   16.5266 C.3     1  LYS1        0.0254
     13 CG         62.7288   89.3193   16.6826 C.3     1  LYS1        0.0035
     14 CD         63.2744   87.9227   16.7253 C.3     1  LYS1        0.0169
     15 CE         62.6711   86.9098   17.6527 C.3     1  LYS1        0.0651
     16 NZ         61.4647   86.1273   17.2261 N.3     1  LYS1       -0.3211
     17 HZ1        60.6698   86.7579   17.1217 H       1  LYS1        0.1189
     18 HZ2        61.2494   85.4228   17.9317 H       1  LYS1        0.1189
     19 N          63.1187   86.0782   12.1647 N.am    0  UNK0       -0.3046
     20 C          61.9190   86.9019   11.8013 C.2     0  UNK0        0.2403
     21 O          60.5396   86.3762   12.0677 O.2     0  UNK0       -0.2733
     22 H          64.0240   86.4232   11.9898 H       0  UNK0        0.1494
     23 C          62.7082   81.3045   11.9933 C.3     0  UNK0        0.0001
     24 C          62.6975   82.3314   13.0866 C.3     0  UNK0        0.0016
     25 C          62.5355   82.0570   14.5524 C.3     0  UNK0        0.0001
     26 C          62.5848   83.3690   15.2777 C.3     0  UNK0        0.0016
     27 C          62.7771   84.4543   14.2602 C.3     0  UNK0        0.0180
     28 C          62.9391   84.7287   12.7945 C.3     0  UNK0        0.0715
     29 C          62.8898   83.4166   12.0691 C.3     0  UNK0        0.0196
     30 C          62.8468   83.8130   12.9060 C.3     0  UNK0        0.0016
     31 C          63.0344   85.0601   12.0938 C.3     0  UNK0        0.0001
     32 C          62.9881   83.8282   11.4128 C.3     0  UNK0        0.0001
     33 C          62.2740   88.3686    9.6863 C.3     0  UNK0        0.0290
     34 C          61.9685   87.1973    8.8003 C.3     0  UNK0        0.0021
     35 C          63.0366   86.1894    8.4947 C.3     0  UNK0        0.0001
     36 C          62.7312   85.0182    7.6087 C.3     0  UNK0        0.0000
     37 C          61.3576   84.8549    7.0284 C.3     0  UNK0        0.0000
     38 C          60.2896   85.8628    7.3341 C.3     0  UNK0        0.0000
     39 C          60.5951   87.0340    8.2200 C.3     0  UNK0        0.0001
@<TRIPOS>UNITY_ATOM_ATTR
10 1
charge -1
@<TRIPOS>BOND
     1    23    24    1
     2    24    25    1
     3    25    26    1
     4    26    27    1
     5    27    28    1
     6    28    19    1
     7    19    20   am
     8    20    21    2
     9    20     1    1
    10     1    33    1
    11    33    34    1
    12    34    35    1
    13    35    36    1
    14    36    37    1
    15    37    38    1
    16    38    39    1
    17     1     2    1
    18     2     3   am
    19     3     4    2
    20     3     5   am
    21     5     8    1
    22     8    12    1
    23    12    13    1
    24    13    14    1
    25    14    15    1
    26    15    16    1
    27     8     9    1
    28     9    10   ar
    29     9    11   ar
    30    28    29    1
    31    27    30    1
    32    30    31    1
    33    30    32    1
    34    29    24    1
    35    30    24    1
    36    39    34    1
    37    19    22    1
    38     2     6    1
    39     5     7    1
    40    16    17    1
    41    16    18    1
@<TRIPOS>MOLECULE
*****
 39 41 0 0 0
SMALL
GASTEIGER

@<TRIPOS>ATOM
      1 C          62.0697   88.2881   11.0873 C.3     0  UNK0        0.1497
      2 N          62.1140   89.5370   11.9169 N.am    0  UNK0       -0.2826
      3 C          63.1581   89.6929   12.9826 C.2     0  UNK0        0.3013
      4 O          64.1579   88.5999   13.2186 O.2     0  UNK0       -0.2528
      5 N          63.2024   90.9418   13.8121 N.am    1  LYS1       -0.2857
      6 H          61.4578   90.2544   11.7620 H       0  UNK0        0.1514
      7 H          62.5462   91.6592   13.6572 H       1  LYS1        0.1513
      8 CA         64.2465   91.0978   14.8777 C.3     1  LYS1        0.1095
      9 C          63.8390   91.2024   16.3175 C.2     1  LYS1        0.0682
     10 O          64.1532   92.4444   17.0976 O.co2   1  LYS1       -0.5475
     11 OXT        63.1171   90.0649   16.9772 O.co2   1  LYS1       -0.5475
     12 CB         65.6982   91.1490   14.5035 C.3     1  LYS1        0.0254
     13 CG         66.4122   92.4670   14.4476 C.3     1  LYS1        0.0035
     14 CD         67.3115   92.8813   15.5744 C.3     1  LYS1        0.0169
     15 CE         68.7973   92.7208   15.4460 C.3     1  LYS1        0.0651
     16 NZ         69.3945   92.2848   14.1409 N.3     1  LYS1       -0.3211
     17 HZ1        69.1013   91.3298   13.9350 H       1  LYS1        0.1189
     18 HZ2        70.4119   92.3221   14.2033 H       1  LYS1        0.1189
     19 N          63.0804   86.1596   12.1818 N.am    0  UNK0       -0.3046
     20 C          61.8844   86.9546   11.7487 C.2     0  UNK0        0.2403
     21 O          60.5031   86.4160   11.9769 O.2     0  UNK0       -0.2733
     22 H          63.9870   86.5131   12.0320 H       0  UNK0        0.1494
     23 C          62.5992   81.3899   12.1183 C.3     0  UNK0        0.0001
     24 C          62.6260   82.4390   13.1901 C.3     0  UNK0        0.0016
     25 C          62.4913   82.1971   14.6643 C.3     0  UNK0        0.0001
     26 C          62.5743   83.5229   15.3610 C.3     0  UNK0        0.0016
     27 C          62.7604   84.5842   14.3174 C.3     0  UNK0        0.0180
     28 C          62.8952   84.8261   12.8432 C.3     0  UNK0        0.0715
     29 C          62.8121   83.5003   12.1464 C.3     0  UNK0        0.0196
     30 C          62.7924   83.9143   12.9757 C.3     0  UNK0        0.0016
     31 C          62.9803   85.1416   12.1340 C.3     0  UNK0        0.0001
     32 C          62.9023   83.8968   11.4798 C.3     0  UNK0        0.0001
     33 C          62.2107   88.3727    9.5963 C.3     0  UNK0        0.0290
     34 C          61.9217   87.1710    8.7463 C.3     0  UNK0        0.0021
     35 C          63.0033   86.1683    8.4727 C.3     0  UNK0        0.0001
     36 C          62.7144   84.9666    7.6227 C.3     0  UNK0        0.0000
     37 C          61.3438   84.7677    7.0463 C.3     0  UNK0        0.0000
     38 C          60.2623   85.7704    7.3200 C.3     0  UNK0        0.0000
     39 C          60.5513   86.9720    8.1700 C.3     0  UNK0        0.0001
@<TRIPOS>UNITY_ATOM_ATTR
10 1
charge -1
@<TRIPOS>BOND
     1    23    24    1
     2    24    25    1
     3    25    26    1
     4    26    27    1
     5    27    28    1
     6    28    19    1
     7    19    20   am
     8    20    21    2
     9    20     1    1
    10     1    33    1
    11    33    34    1
    12    34    35    1
    13    35    36    1
    14    36    37    1
    15    37    38    1
    16    38    39    1
    17     1     2    1
    18     2     3   am
    19     3     4    2
    20     3     5   am
    21     5     8    1
    22     8    12    1
    23    12    13    1
    24    13    14    1
    25    14    15    1
    26    15    16    1
    27     8     9    1
    28     9    10   ar
    29     9    11   ar
    30    28    29    1
    31    27    30    1
    32    30    31    1
    33    30    32    1
    34    29    24    1
    35    30    24    1
    36    39    34    1
    37    19    22    1
    38     2     6    1
    39     5     7    1
    40    16    17    1
    41    16    18    1
@<TRIPOS>MOLECULE
*****
 39 41 0 0 0
SMALL
GASTEIGER

@<TRIPOS>ATOM
      1 C          61.2978   87.3043   10.9952 C.3     0  UNK0        0.1497
      2 N          61.1268   86.3534   12.1426 N.am    0  UNK0       -0.2826
      3 C          62.2174   85.3800   12.4790 C.2     0  UNK0        0.3013
      4 O          63.4790   85.3575   11.6679 O.2     0  UNK0       -0.2528
      5 N          62.0464   84.4291   13.6264 N.am    1  LYS1       -0.2857
      6 H          60.2988   86.3682   12.6749 H       0  UNK0        0.1514
      7 H          61.2184   84.4439   14.1587 H       1  LYS1        0.1513
      8 CA         63.1370   83.4558   13.9627 C.3     1  LYS1        0.1095
      9 C          63.1322   82.0845   13.3547 C.2     1  LYS1        0.0682
     10 O          63.6613   80.9169   14.1336 O.co2   1  LYS1       -0.5475
     11 OXT        62.5984   81.8810   11.9677 O.co2   1  LYS1       -0.5475
     12 CB         64.2324   83.8537   14.9071 C.3     1  LYS1        0.0254
     13 CG         64.7452   85.2633   14.9097 C.3     1  LYS1        0.0035
     14 CD         63.9907   86.3345   15.6401 C.3     1  LYS1        0.0169
     15 CE         63.1988   85.9906   16.8667 C.3     1  LYS1        0.0651
     16 NZ         61.7119   85.8161   16.7749 N.3     1  LYS1       -0.3211
     17 HZ1        61.2789   86.7084   16.5368 H       1  LYS1        0.1189
     18 HZ2        61.3515   85.4921   17.6725 H       1  LYS1        0.1189
     19 N          62.7195   88.9021   12.4703 N.am    0  UNK0       -0.3046
     20 C          62.2381   88.4665   11.1181 C.2     0  UNK0        0.2403
     21 O          62.6970   89.1932    9.8886 O.2     0  UNK0       -0.2733
     22 H          62.4184   88.4251   13.2771 H       0  UNK0        0.1494
     23 C          66.0082   91.5098   14.7877 C.3     0  UNK0        0.0001
     24 C          65.3172   91.6109   13.4601 C.3     0  UNK0        0.0016
     25 C          65.5294   92.6855   12.4354 C.3     0  UNK0        0.0001
     26 C          64.6361   92.3938   11.2662 C.3     0  UNK0        0.0016
     27 C          63.8719   91.1389   11.5683 C.3     0  UNK0        0.0180
     28 C          63.6598   90.0643   12.5931 C.3     0  UNK0        0.0715
     29 C          64.5531   90.3560   13.7624 C.3     0  UNK0        0.0196
     30 C          64.2929   90.6551   12.9243 C.3     0  UNK0        0.0016
     31 C          63.4204   89.4368   12.9914 C.3     0  UNK0        0.0001
     32 C          64.2591   89.7106   14.0892 C.3     0  UNK0        0.0001
     33 C          60.5286   87.0929    9.7249 C.3     0  UNK0        0.0290
     34 C          61.0965   86.2274    8.6394 C.3     0  UNK0        0.0021
     35 C          62.5383   85.8161    8.6853 C.3     0  UNK0        0.0001
     36 C          63.1062   84.9506    7.5998 C.3     0  UNK0        0.0000
     37 C          62.2323   84.4963    6.4684 C.3     0  UNK0        0.0000
     38 C          60.7905   84.9076    6.4225 C.3     0  UNK0        0.0000
     39 C          60.2226   85.7732    7.5080 C.3     0  UNK0        0.0001
@<TRIPOS>UNITY_ATOM_ATTR
10 1
charge -1
@<TRIPOS>BOND
     1    23    24    1
     2    24    25    1
     3    25    26    1
     4    26    27    1
     5    27    28    1
     6    28    19    1
     7    19    20   am
     8    20    21    2
     9    20     1    1
    10     1    33    1
    11    33    34    1
    12    34    35    1
    13    35    36    1
    14    36    37    1
    15    37    38    1
    16    38    39    1
    17     1     2    1
    18     2     3   am
    19     3     4    2
    20     3     5   am
    21     5     8    1
    22     8    12    1
    23    12    13    1
    24    13    14    1
    25    14    15    1
    26    15    16    1
    27     8     9    1
    28     9    10   ar
    29     9    11   ar
    30    28    29    1
    31    27    30    1
    32    30    31    1
    33    30    32    1
    34    29    24    1
    35    30    24    1
    36    39    34    1
    37    19    22    1
    38     2     6    1
    39     5     7    1
    40    16    17    1
    41    16    18    1
@<TRIPOS>MOLECULE
*****
 39 41 0 0 0
SMALL
GASTEIGER

@<TRIPOS>ATOM
      1 C          63.7961   91.1040   12.9244 C.3     0  UNK0        0.1497
      2 N          63.3732   90.6356   14.2851 N.am    0  UNK0       -0.2826
      3 C          63.5571   89.1987   14.6744 C.2     0  UNK0        0.3013
      4 O          64.1640   88.2302   13.7030 O.2     0  UNK0       -0.2528
      5 N          63.1341   88.7303   16.0352 N.am    1  LYS1       -0.2857
      6 H          62.9748   91.2712   14.9227 H       0  UNK0        0.1514
      7 H          62.7358   89.3659   16.6728 H       1  LYS1        0.1513
      8 CA         63.3181   87.2934   16.4244 C.3     1  LYS1        0.1095
      9 C          62.4074   86.6689   17.4396 C.2     1  LYS1        0.0682
     10 O          62.7583   86.7245   18.8968 O.co2   1  LYS1       -0.5475
     11 OXT        61.1456   85.9887   16.9973 O.co2   1  LYS1       -0.5475
     12 CB         64.4128   86.4810   15.7985 C.3     1  LYS1        0.0254
     13 CG         64.1588   85.0555   15.4071 C.3     1  LYS1        0.0035
     14 CD         63.3781   84.7467   14.1640 C.3     1  LYS1        0.0169
     15 CE         62.3891   83.6190   14.1602 C.3     1  LYS1        0.0651
     16 NZ         62.5362   82.4892   15.1357 N.3     1  LYS1       -0.3211
     17 HZ1        63.3888   81.9693   14.9278 H       1  LYS1        0.1189
     18 HZ2        61.7315   81.8671   15.0594 H       1  LYS1        0.1189
     19 N          62.2149   89.3584   11.8280 N.am    0  UNK0       -0.3046
     20 C          63.1789   90.5001   11.6979 C.2     0  UNK0        0.2403
     21 O          63.5257   91.0380   10.3412 O.2     0  UNK0       -0.2733
     22 H          61.9872   89.0053   12.7183 H       0  UNK0        0.1494
     23 C          61.6198   85.8245    8.6431 C.3     0  UNK0        0.0001
     24 C          61.0484   87.2001    8.8202 C.3     0  UNK0        0.0016
     25 C          60.0374   87.8565    7.9275 C.3     0  UNK0        0.0001
     26 C          59.7519   89.2228    8.4767 C.3     0  UNK0        0.0016
     27 C          60.5866   89.4108    9.7088 C.3     0  UNK0        0.0180
     28 C          61.5976   88.7545   10.6014 C.3     0  UNK0        0.0715
     29 C          61.8831   87.3880   10.0523 C.3     0  UNK0        0.0196
     30 C          61.3879   88.1607    9.9211 C.3     0  UNK0        0.0016
     31 C          62.1106   88.5847   11.1652 C.3     0  UNK0        0.0001
     32 C          62.3787   87.3018   10.6496 C.3     0  UNK0        0.0001
     33 C          64.8364   92.1764   12.7901 C.3     0  UNK0        0.0290
     34 C          65.9769   92.2408   13.7622 C.3     0  UNK0        0.0021
     35 C          65.7264   92.6365   15.1873 C.3     0  UNK0        0.0001
     36 C          66.8669   92.7009   16.1594 C.3     0  UNK0        0.0000
     37 C          68.2580   92.3696   15.7064 C.3     0  UNK0        0.0000
     38 C          68.5085   91.9739   14.2814 C.3     0  UNK0        0.0000
     39 C          67.3680   91.9095   13.3093 C.3     0  UNK0        0.0001
@<TRIPOS>UNITY_ATOM_ATTR
10 1
charge -1
@<TRIPOS>BOND
     1    23    24    1
     2    24    25    1
     3    25    26    1
     4    26    27    1
     5    27    28    1
     6    28    19    1
     7    19    20   am
     8    20    21    2
     9    20     1    1
    10     1    33    1
    11    33    34    1
    12    34    35    1
    13    35    36    1
    14    36    37    1
    15    37    38    1
    16    38    39    1
    17     1     2    1
    18     2     3   am
    19     3     4    2
    20     3     5   am
    21     5     8    1
    22     8    12    1
    23    12    13    1
    24    13    14    1
    25    14    15    1
    26    15    16    1
    27     8     9    1
    28     9    10   ar
    29     9    11   ar
    30    28    29    1
    31    27    30    1
    32    30    31    1
    33    30    32    1
    34    29    24    1
    35    30    24    1
    36    39    34    1
    37    19    22    1
    38     2     6    1
    39     5     7    1
    40    16    17    1
    41    16    18    1
@<TRIPOS>MOLECULE
*****
 39 41 0 0 0
SMALL
GASTEIGER

@<TRIPOS>ATOM
      1 C          61.2338   87.4382   10.8877 C.3     0  UNK0        0.1497
      2 N          60.9884   86.4974   12.0299 N.am    0  UNK0       -0.2826
      3 C          62.0986   85.6229   12.5330 C.2     0  UNK0        0.3013
      4 O          63.4539   85.6893   11.8939 O.2     0  UNK0       -0.2528
      5 N          61.8532   84.6822   13.6752 N.am    1  LYS1       -0.2857
      6 H          60.0989   86.4539   12.4494 H       0  UNK0        0.1514
      7 H          60.9637   84.6386   14.0947 H       1  LYS1        0.1513
      8 CA         62.9633   83.8078   14.1783 C.3     1  LYS1        0.1095
      9 C          64.1750   84.4241   14.8122 C.2     1  LYS1        0.0682
     10 O          65.5274   84.2260   14.1944 O.co2   1  LYS1       -0.5475
     11 OXT        64.0343   85.2386   16.0640 O.co2   1  LYS1       -0.5475
     12 CB         62.8617   82.3169   14.0474 C.3     1  LYS1        0.0254
     13 CG         62.2550   81.7117   12.8164 C.3     1  LYS1        0.0035
     14 CD         63.1347   81.2853   11.6786 C.3     1  LYS1        0.0169
     15 CE         63.7556   82.3163   10.7835 C.3     1  LYS1        0.0651
     16 NZ         64.9821   83.0558   11.2293 N.3     1  LYS1       -0.3211
     17 HZ1        64.7526   83.6423   12.0317 H       1  LYS1        0.1189
     18 HZ2        65.3222   83.6413   10.4664 H       1  LYS1        0.1189
     19 N          62.7500   88.8995   12.4094 N.am    0  UNK0       -0.3046
     20 C          62.1650   88.6013   11.0608 C.2     0  UNK0        0.2403
     21 O          62.5112   89.4663    9.8852 O.2     0  UNK0       -0.2733
     22 H          62.5228   88.3318   13.1810 H       0  UNK0        0.1494
     23 C          65.8856   91.5259   14.9106 C.3     0  UNK0        0.0001
     24 C          65.2809   91.6161   13.5408 C.3     0  UNK0        0.0016
     25 C          65.5587   92.6823   12.5229 C.3     0  UNK0        0.0001
     26 C          64.7417   92.3811   11.3015 C.3     0  UNK0        0.0016
     27 C          63.9590   91.1288   11.5646 C.3     0  UNK0        0.0180
     28 C          63.6812   90.0626   12.5825 C.3     0  UNK0        0.0715
     29 C          64.4982   90.3638   13.8040 C.3     0  UNK0        0.0196
     30 C          64.2923   90.6560   12.9486 C.3     0  UNK0        0.0016
     31 C          63.4165   89.4384   12.9698 C.3     0  UNK0        0.0001
     32 C          64.1835   89.7212   14.1166 C.3     0  UNK0        0.0001
     33 C          60.5478   87.2159    9.5723 C.3     0  UNK0        0.0290
     34 C          61.1458   86.2809    8.5633 C.3     0  UNK0        0.0021
     35 C          60.3125   85.7756    7.4229 C.3     0  UNK0        0.0001
     36 C          60.9105   84.8405    6.4138 C.3     0  UNK0        0.0000
     37 C          62.3417   84.4108    6.5452 C.3     0  UNK0        0.0000
     38 C          63.1748   84.9161    7.6855 C.3     0  UNK0        0.0000
     39 C          62.5769   85.8512    8.6946 C.3     0  UNK0        0.0001
@<TRIPOS>UNITY_ATOM_ATTR
10 1
charge -1
@<TRIPOS>BOND
     1    23    24    1
     2    24    25    1
     3    25    26    1
     4    26    27    1
     5    27    28    1
     6    28    19    1
     7    19    20   am
     8    20    21    2
     9    20     1    1
    10     1    33    1
    11    33    34    1
    12    34    35    1
    13    35    36    1
    14    36    37    1
    15    37    38    1
    16    38    39    1
    17     1     2    1
    18     2     3   am
    19     3     4    2
    20     3     5   am
    21     5     8    1
    22     8    12    1
    23    12    13    1
    24    13    14    1
    25    14    15    1
    26    15    16    1
    27     8     9    1
    28     9    10   ar
    29     9    11   ar
    30    28    29    1
    31    27    30    1
    32    30    31    1
    33    30    32    1
    34    29    24    1
    35    30    24    1
    36    39    34    1
    37    19    22    1
    38     2     6    1
    39     5     7    1
    40    16    17    1
    41    16    18    1
@<TRIPOS>MOLECULE
*****
 39 41 0 0 0
SMALL
GASTEIGER

@<TRIPOS>ATOM
      1 C          62.4746   89.5338   11.0927 C.3     0  UNK0        0.1497
      2 N          63.5287   90.4231   10.5029 N.am    0  UNK0       -0.2826
      3 C          64.1724   91.4841   11.3457 C.2     0  UNK0        0.3013
      4 O          63.7618   91.6557   12.7781 O.2     0  UNK0       -0.2528
      5 N          65.2265   92.3734   10.7559 N.am    1  LYS1       -0.2857
      6 H          63.7982   90.3105    9.5627 H       0  UNK0        0.1514
      7 H          65.4960   92.2608    9.8158 H       1  LYS1        0.1513
      8 CA         65.8701   93.4344   11.5987 C.3     1  LYS1        0.1095
      9 C          66.6173   93.0536   12.8424 C.2     1  LYS1        0.0682
     10 O          67.8711   92.2363   12.7434 O.co2   1  LYS1       -0.5475
     11 OXT        66.1105   93.4902   14.1850 O.co2   1  LYS1       -0.5475
     12 CB         65.7665   94.8761   11.1978 C.3     1  LYS1        0.0254
     13 CG         66.2126   95.3089    9.8326 C.3     1  LYS1        0.0035
     14 CD         67.6350   95.0968    9.4061 C.3     1  LYS1        0.0169
     15 CE         68.1072   93.7249    9.0253 C.3     1  LYS1        0.0651
     16 NZ         69.1856   93.0544    9.8236 N.3     1  LYS1       -0.3211
     17 HZ1        70.0585   93.5711    9.7171 H       1  LYS1        0.1189
     18 HZ2        69.3127   92.0994    9.4887 H       1  LYS1        0.1189
     19 N          62.6634   86.9839   11.5531 N.am    0  UNK0       -0.3046
     20 C          62.8672   88.4024   11.9959 C.2     0  UNK0        0.2403
     21 O          63.4635   88.6897   13.3420 O.2     0  UNK0       -0.2733
     22 H          62.2721   86.7954   10.6696 H       0  UNK0        0.1494
     23 C          62.7655   82.3579   12.8084 C.3     0  UNK0        0.0001
     24 C          63.3101   83.6277   13.3925 C.3     0  UNK0        0.0016
     25 C          64.1073   83.7454   14.6577 C.3     0  UNK0        0.0001
     26 C          64.4429   85.1931   14.8610 C.3     0  UNK0        0.0016
     27 C          63.8532   85.9702   13.7215 C.3     0  UNK0        0.0180
     28 C          63.0560   85.8525   12.4563 C.3     0  UNK0        0.0715
     29 C          62.7203   84.4047   12.2529 C.3     0  UNK0        0.0196
     30 C          63.1531   85.0027   12.8139 C.3     0  UNK0        0.0016
     31 C          62.6668   85.9884   11.7931 C.3     0  UNK0        0.0001
     32 C          62.3517   84.6291   11.6022 C.3     0  UNK0        0.0001
     33 C          61.0278   89.7759   10.7792 C.3     0  UNK0        0.0290
     34 C          60.3682   89.0291    9.6578 C.3     0  UNK0        0.0021
     35 C          60.1044   89.7174    8.3514 C.3     0  UNK0        0.0001
     36 C          59.4448   88.9706    7.2301 C.3     0  UNK0        0.0000
     37 C          59.0492   87.5356    7.4152 C.3     0  UNK0        0.0000
     38 C          59.3131   86.8474    8.7216 C.3     0  UNK0        0.0000
     39 C          59.9726   87.5941    9.8429 C.3     0  UNK0        0.0001
@<TRIPOS>UNITY_ATOM_ATTR
10 1
charge -1
@<TRIPOS>BOND
     1    23    24    1
     2    24    25    1
     3    25    26    1
     4    26    27    1
     5    27    28    1
     6    28    19    1
     7    19    20   am
     8    20    21    2
     9    20     1    1
    10     1    33    1
    11    33    34    1
    12    34    35    1
    13    35    36    1
    14    36    37    1
    15    37    38    1
    16    38    39    1
    17     1     2    1
    18     2     3   am
    19     3     4    2
    20     3     5   am
    21     5     8    1
    22     8    12    1
    23    12    13    1
    24    13    14    1
    25    14    15    1
    26    15    16    1
    27     8     9    1
    28     9    10   ar
    29     9    11   ar
    30    28    29    1
    31    27    30    1
    32    30    31    1
    33    30    32    1
    34    29    24    1
    35    30    24    1
    36    39    34    1
    37    19    22    1
    38     2     6    1
    39     5     7    1
    40    16    17    1
    41    16    18    1
@<TRIPOS>MOLECULE
*****
 39 41 0 0 0
SMALL
GASTEIGER

@<TRIPOS>ATOM
      1 C          63.3394   85.1936   12.4601 C.3     0  UNK0        0.1497
      2 N          63.8758   85.9065   13.6659 N.am    0  UNK0       -0.2826
      3 C          63.8005   87.4024   13.7480 C.2     0  UNK0        0.3013
      4 O          63.1886   88.1853   12.6243 O.2     0  UNK0       -0.2528
      5 N          64.3369   88.1153   14.9538 N.am    1  LYS1       -0.2857
      6 H          64.2774   85.3926   14.4034 H       0  UNK0        0.1514
      7 H          64.7385   87.6014   15.6913 H       1  LYS1        0.1513
      8 CA         64.2615   89.6111   15.0358 C.3     1  LYS1        0.1095
      9 C          63.2473   90.2631   15.9281 C.2     1  LYS1        0.0682
     10 O          61.9743   89.5455   16.2663 O.co2   1  LYS1       -0.5475
     11 OXT        63.5061   91.6328   16.4822 O.co2   1  LYS1       -0.5475
     12 CB         65.2004   90.4550   14.2256 C.3     1  LYS1        0.0254
     13 CG         64.6651   91.3427   13.1414 C.3     1  LYS1        0.0035
     14 CD         65.5518   92.3762   12.5123 C.3     1  LYS1        0.0169
     15 CE         66.6153   93.0492   13.3283 C.3     1  LYS1        0.0651
     16 NZ         66.2377   93.8456   14.5420 N.3     1  LYS1       -0.3211
     17 HZ1        65.6977   94.6630   14.2580 H       1  LYS1        0.1189
     18 HZ2        67.0828   94.1480   15.0267 H       1  LYS1        0.1189
     19 N          62.5310   86.1444   10.1814 N.am    0  UNK0       -0.3046
     20 C          62.2696   85.8327   11.6252 C.2     0  UNK0        0.2403
     21 O          60.9383   86.1601   12.2341 O.2     0  UNK0       -0.2733
     22 H          63.4047   85.9295    9.7818 H       0  UNK0        0.1494
     23 C          60.0505   89.9196    8.5749 C.3     0  UNK0        0.0001
     24 C          60.0101   88.4407    8.3274 C.3     0  UNK0        0.0016
     25 C          59.0657   87.7264    7.4066 C.3     0  UNK0        0.0001
     26 C          59.3789   86.2607    7.4674 C.3     0  UNK0        0.0016
     27 C          60.5169   86.0692    8.4257 C.3     0  UNK0        0.0180
     28 C          61.4613   86.7835    9.3465 C.3     0  UNK0        0.0715
     29 C          61.1481   88.2493    9.2858 C.3     0  UNK0        0.0196
     30 C          60.9070   87.4165    8.9572 C.3     0  UNK0        0.0016
     31 C          62.0206   86.9712    9.8580 C.3     0  UNK0        0.0001
     32 C          61.7266   88.3473    9.8010 C.3     0  UNK0        0.0001
     33 C          63.8727   83.8414   12.0893 C.3     0  UNK0        0.0290
     34 C          63.1821   82.6029   12.5782 C.3     0  UNK0        0.0021
     35 C          62.3751   82.6435   13.8421 C.3     0  UNK0        0.0001
     36 C          61.6845   81.4050   14.3311 C.3     0  UNK0        0.0000
     37 C          61.8009   80.1258   13.5562 C.3     0  UNK0        0.0000
     38 C          62.6078   80.0853   12.2924 C.3     0  UNK0        0.0000
     39 C          63.2984   81.3238   11.8035 C.3     0  UNK0        0.0001
@<TRIPOS>UNITY_ATOM_ATTR
10 1
charge -1
@<TRIPOS>BOND
     1    23    24    1
     2    24    25    1
     3    25    26    1
     4    26    27    1
     5    27    28    1
     6    28    19    1
     7    19    20   am
     8    20    21    2
     9    20     1    1
    10     1    33    1
    11    33    34    1
    12    34    35    1
    13    35    36    1
    14    36    37    1
    15    37    38    1
    16    38    39    1
    17     1     2    1
    18     2     3   am
    19     3     4    2
    20     3     5   am
    21     5     8    1
    22     8    12    1
    23    12    13    1
    24    13    14    1
    25    14    15    1
    26    15    16    1
    27     8     9    1
    28     9    10   ar
    29     9    11   ar
    30    28    29    1
    31    27    30    1
    32    30    31    1
    33    30    32    1
    34    29    24    1
    35    30    24    1
    36    39    34    1
    37    19    22    1
    38     2     6    1
    39     5     7    1
    40    16    17    1
    41    16    18    1
