@<TRIPOS>MOLECULE
*****
 40 45 0 0 0
SMALL
GASTEIGER

@<TRIPOS>ATOM
      1 C          59.4083   90.0653    6.6538 C.ar    1  UNL1        0.1319
      2 C          57.9128   90.0589    6.5377 C.ar    1  UNL1        0.0343
      3 C          57.2429   90.8246    5.4355 C.ar    1  UNL1        0.0046
      4 C          58.0684   91.5968    4.4495 C.ar    1  UNL1        0.0239
      5 C          59.5639   91.6032    4.5657 C.ar    1  UNL1        0.1358
      6 N          60.2338   90.8375    5.6678 N.ar    1  UNL1       -0.2261
      7 C          59.0789   87.0885    6.8274 C.3     1  UNL1        0.0233
      8 C          59.9135   87.8112    7.8428 C.3     1  UNL1        0.0939
      9 C          60.5834   87.0455    8.9450 C.3     1  UNL1        0.1106
     10 N          61.4181   87.7682    9.9605 N.pl3   1  UNL1       -0.3029
     11 C          61.5828   89.2566    9.8737 C.3     1  UNL1        0.1123
     12 C          60.9129   90.0223    8.7715 C.3     1  UNL1        0.1135
     13 N          60.0782   89.2996    7.7561 N.pl3   1  UNL1       -0.2914
     14 C          62.0880   87.0024   11.0627 C.ar    1  UNL1        0.0674
     15 C          61.9704   85.5080   11.1166 C.ar    1  UNL1        0.0174
     16 C          62.6403   84.7423   12.2188 C.ar    1  UNL1        0.0183
     17 C          63.4279   85.4709   13.2671 C.ar    1  UNL1        0.0831
     18 N          63.5455   86.9653   13.2132 N.ar    1  UNL1       -0.2446
     19 C          62.8755   87.7311   12.1110 C.ar    1  UNL1        0.1130
     20 C          64.0977   84.7051   14.3693 C.3     1  UNL1        0.1232
     21 C          64.6145   85.9892   14.9473 C.3     1  UNL1        0.0355
     22 C          63.5810   83.4211   13.7912 C.3     1  UNL1        0.0355
     23 O          64.7676   83.9394   15.4714 O.3     1  UNL1       -0.3812
     24 H          65.2271   84.5572   16.0614 H       1  UNL1        0.2107
     25 C          60.3894   92.3754    3.5796 C.2     1  UNL1        0.2636
     26 O          59.9213   93.7163    3.0969 O.2     1  UNL1       -0.2685
     27 N          61.6829   91.8068    3.0763 N.am    1  UNL1       -0.3013
     28 H          61.9901   90.9267    3.3931 H       1  UNL1        0.1497
     29 C          62.5085   92.5790    2.0902 C.3     1  UNL1        0.0719
     30 C          62.0476   92.7139    0.6692 C.3     1  UNL1        0.0203
     31 C          63.3339   93.3512    1.1042 C.3     1  UNL1        0.0018
     32 C          64.1594   94.1233    0.1181 C.3     1  UNL1        0.0024
     33 C          64.6202   93.9884    1.5392 C.3     1  UNL1        0.0018
     34 C          63.7948   93.2163    2.5252 C.3     1  UNL1        0.0203
     35 C          63.4210   93.9110   -0.6664 C.3     1  UNL1        0.0285
     36 C          62.4123   93.6209   -1.7380 C.3     1  UNL1        0.0884
     37 O          61.9514   93.7558   -3.1590 O.3     1  UNL1       -0.3867
     38 C          63.6986   94.2582   -1.3029 C.3     1  UNL1        0.0269
     39 C          61.5868   92.8488   -0.7519 C.3     1  UNL1        0.0285
     40 H          62.5954   94.2811   -3.6593 H       1  UNL1        0.2102
@<TRIPOS>BOND
     1     8     7    1
     2     8     9    1
     3     9    10    1
     4    10    14    1
     5    14    15   ar
     6    15    16   ar
     7    16    17   ar
     8    17    20    1
     9    20    21    1
    10    20    22    1
    11    20    23    1
    12    17    18   ar
    13    18    19   ar
    14    10    11    1
    15    11    12    1
    16    12    13    1
    17    13     1    1
    18     1     2   ar
    19     2     3   ar
    20     3     4   ar
    21     4     5   ar
    22     5    25    1
    23    25    26    2
    24    25    27   am
    25    27    29    1
    26    29    30    1
    27    30    31    1
    28    31    32    1
    29    32    33    1
    30    33    34    1
    31    34    35    1
    32    35    36    1
    33    36    37    1
    34    36    38    1
    35    36    39    1
    36     5     6   ar
    37    13     8    1
    38     6     1   ar
    39    19    14   ar
    40    34    29    1
    41    39    30    1
    42    38    32    1
    43    23    24    1
    44    27    28    1
    45    37    40    1
@<TRIPOS>MOLECULE
*****
 40 45 0 0 0
SMALL
GASTEIGER

@<TRIPOS>ATOM
      1 C          64.0741   88.8442   14.7113 C.ar    1  UNL1        0.1319
      2 C          63.5395   89.1974   16.0676 C.ar    1  UNL1        0.0343
      3 C          63.7280   90.5829   16.6105 C.ar    1  UNL1        0.0046
      4 C          64.4512   91.6151   15.7973 C.ar    1  UNL1        0.0239
      5 C          64.9858   91.2619   14.4410 C.ar    1  UNL1        0.1358
      6 N          64.7972   89.8764   13.8980 N.ar    1  UNL1       -0.2261
      7 C          62.8169   88.4473   12.0165 C.3     1  UNL1        0.0233
      8 C          63.2569   87.2602   12.8210 C.3     1  UNL1        0.0939
      9 C          63.0684   85.8747   12.2781 C.3     1  UNL1        0.1106
     10 N          63.5084   84.6876   13.0826 N.pl3   1  UNL1       -0.3029
     11 C          64.1370   84.8860   14.4299 C.3     1  UNL1        0.1123
     12 C          64.3256   86.2715   14.9728 C.3     1  UNL1        0.1135
     13 N          63.8855   87.4586   14.1684 N.pl3   1  UNL1       -0.2914
     14 C          63.3198   83.3020   12.5396 C.ar    1  UNL1        0.0674
     15 C          63.6371   83.0099   11.1030 C.ar    1  UNL1        0.0174
     16 C          63.4486   81.6244   10.5600 C.ar    1  UNL1        0.0183
     17 C          62.9427   80.5310   11.4537 C.ar    1  UNL1        0.0831
     18 N          62.6254   80.8231   12.8903 N.ar    1  UNL1       -0.2446
     19 C          62.8140   82.2087   13.4333 C.ar    1  UNL1        0.1130
     20 C          62.7541   79.1455   10.9107 C.3     1  UNL1        0.1232
     21 C          63.0143   79.6537    9.5236 C.3     1  UNL1        0.0355
     22 C          62.4940   78.6373   12.2978 C.3     1  UNL1        0.0355
     23 O          62.5656   77.7600   10.3677 O.3     1  UNL1       -0.3812
     24 H          62.6836   77.7712    9.4050 H       1  UNL1        0.2107
     25 C          65.7090   92.2942   13.6277 C.2     1  UNL1        0.2636
     26 O          67.0623   92.7760   14.0594 O.2     1  UNL1       -0.2685
     27 N          65.0788   92.8447   12.3828 N.am    1  UNL1       -0.3013
     28 H          64.1905   92.5285   12.0995 H       1  UNL1        0.1497
     29 C          65.8020   93.8771   11.5695 C.3     1  UNL1        0.0719
     30 C          66.5192   93.4758   10.3147 C.3     1  UNL1        0.0203
     31 C          66.5251   94.9093   10.7563 C.3     1  UNL1        0.0018
     32 C          67.2483   95.9416    9.9430 C.3     1  UNL1        0.0024
     33 C          66.5310   96.3428   11.1978 C.3     1  UNL1        0.0018
     34 C          65.8079   95.3106   12.0111 C.3     1  UNL1        0.0203
     35 C          67.5490   95.1661    9.2260 C.3     1  UNL1        0.0285
     36 C          67.9596   94.1068    8.2466 C.3     1  UNL1        0.0884
     37 O          68.6769   93.7055    6.9918 O.3     1  UNL1       -0.3867
     38 C          67.9655   95.5403    8.6882 C.3     1  UNL1        0.0269
     39 C          67.2365   93.0746    9.0599 C.3     1  UNL1        0.0285
     40 H          69.0881   94.4870    6.5905 H       1  UNL1        0.2102
@<TRIPOS>BOND
     1     8     7    1
     2     8     9    1
     3     9    10    1
     4    10    14    1
     5    14    15   ar
     6    15    16   ar
     7    16    17   ar
     8    17    20    1
     9    20    21    1
    10    20    22    1
    11    20    23    1
    12    17    18   ar
    13    18    19   ar
    14    10    11    1
    15    11    12    1
    16    12    13    1
    17    13     1    1
    18     1     2   ar
    19     2     3   ar
    20     3     4   ar
    21     4     5   ar
    22     5    25    1
    23    25    26    2
    24    25    27   am
    25    27    29    1
    26    29    30    1
    27    30    31    1
    28    31    32    1
    29    32    33    1
    30    33    34    1
    31    34    35    1
    32    35    36    1
    33    36    37    1
    34    36    38    1
    35    36    39    1
    36     5     6   ar
    37    13     8    1
    38     6     1   ar
    39    19    14   ar
    40    34    29    1
    41    39    30    1
    42    38    32    1
    43    23    24    1
    44    27    28    1
    45    37    40    1
@<TRIPOS>MOLECULE
*****
 40 45 0 0 0
SMALL
GASTEIGER

@<TRIPOS>ATOM
      1 C          59.7224   89.6578    6.8421 C.ar    1  UNL1        0.1319
      2 C          58.8409   88.4450    6.7999 C.ar    1  UNL1        0.0343
      3 C          58.7405   87.5486    7.9984 C.ar    1  UNL1        0.0046
      4 C          59.5217   87.8652    9.2391 C.ar    1  UNL1        0.0239
      5 C          60.4033   89.0781    9.2814 C.ar    1  UNL1        0.1358
      6 N          60.5036   89.9744    8.0829 N.ar    1  UNL1       -0.2261
      7 C          57.2321   90.7306    5.5586 C.3     1  UNL1        0.0233
      8 C          58.5776   91.0906    5.0018 C.3     1  UNL1        0.0939
      9 C          58.6780   91.9869    3.8033 C.3     1  UNL1        0.1106
     10 N          60.0235   92.3468    3.2465 N.pl3   1  UNL1       -0.3029
     11 C          61.2687   91.8105    3.8882 C.3     1  UNL1        0.1123
     12 C          61.1683   90.9142    5.0868 C.3     1  UNL1        0.1135
     13 N          59.8228   90.5542    5.6435 N.pl3   1  UNL1       -0.2914
     14 C          60.1239   93.2432    2.0479 C.ar    1  UNL1        0.0674
     15 C          60.4199   94.7029    2.2257 C.ar    1  UNL1        0.0174
     16 C          60.5202   95.5992    1.0272 C.ar    1  UNL1        0.0183
     17 C          60.3245   95.0359   -0.3492 C.ar    1  UNL1        0.0831
     18 N          60.0285   93.5762   -0.5270 N.ar    1  UNL1       -0.2446
     19 C          59.9282   92.6798    0.6716 C.ar    1  UNL1        0.1130
     20 C          60.4249   95.9322   -1.5477 C.3     1  UNL1        0.1232
     21 C          59.5179   95.0132   -2.3110 C.3     1  UNL1        0.0355
     22 C          61.3319   96.8512   -0.7844 C.3     1  UNL1        0.0355
     23 O          60.5252   96.8286   -2.7462 O.3     1  UNL1       -0.3812
     24 H          59.9938   96.4614   -3.4699 H       1  UNL1        0.2107
     25 C          61.1845   89.3946   10.5222 C.2     1  UNL1        0.2636
     26 O          60.5081   89.3705   11.8608 O.2     1  UNL1       -0.2685
     27 N          62.6420   89.7352   10.4244 N.am    1  UNL1       -0.3013
     28 H          63.0859   89.7510    9.5458 H       1  UNL1        0.1497
     29 C          63.4232   90.0517   11.6652 C.3     1  UNL1        0.0719
     30 C          64.2532   91.2994   11.7310 C.3     1  UNL1        0.0203
     31 C          64.2043   90.3683   12.9060 C.3     1  UNL1        0.0018
     32 C          64.9855   90.6849   14.1467 C.3     1  UNL1        0.0024
     33 C          64.1555   89.4372   14.0809 C.3     1  UNL1        0.0018
     34 C          63.3743   89.1206   12.8402 C.3     1  UNL1        0.0203
     35 C          65.3570   91.6058   13.6780 C.3     1  UNL1        0.0285
     36 C          65.8644   92.8637   13.0376 C.3     1  UNL1        0.0884
     37 O          66.6944   94.1114   13.1034 O.3     1  UNL1       -0.3867
     38 C          65.8155   91.9325   14.2125 C.3     1  UNL1        0.0269
     39 C          65.0832   92.5471   11.7968 C.3     1  UNL1        0.0285
     40 H          67.1311   94.1640   13.9679 H       1  UNL1        0.2102
@<TRIPOS>BOND
     1     8     7    1
     2     8     9    1
     3     9    10    1
     4    10    14    1
     5    14    15   ar
     6    15    16   ar
     7    16    17   ar
     8    17    20    1
     9    20    21    1
    10    20    22    1
    11    20    23    1
    12    17    18   ar
    13    18    19   ar
    14    10    11    1
    15    11    12    1
    16    12    13    1
    17    13     1    1
    18     1     2   ar
    19     2     3   ar
    20     3     4   ar
    21     4     5   ar
    22     5    25    1
    23    25    26    2
    24    25    27   am
    25    27    29    1
    26    29    30    1
    27    30    31    1
    28    31    32    1
    29    32    33    1
    30    33    34    1
    31    34    35    1
    32    35    36    1
    33    36    37    1
    34    36    38    1
    35    36    39    1
    36     5     6   ar
    37    13     8    1
    38     6     1   ar
    39    19    14   ar
    40    34    29    1
    41    39    30    1
    42    38    32    1
    43    23    24    1
    44    27    28    1
    45    37    40    1
@<TRIPOS>MOLECULE
*****
 40 45 0 0 0
SMALL
GASTEIGER

@<TRIPOS>ATOM
      1 C          59.8644   89.8778    6.6602 C.ar    1  UNL1        0.1319
      2 C          59.1321   88.5688    6.6450 C.ar    1  UNL1        0.0343
      3 C          59.1216   87.7010    7.8684 C.ar    1  UNL1        0.0046
      4 C          59.8433   88.1423    9.1071 C.ar    1  UNL1        0.0239
      5 C          60.5756   89.4513    9.1224 C.ar    1  UNL1        0.1358
      6 N          60.5861   90.3191    7.8989 N.ar    1  UNL1       -0.2261
      7 C          57.2863   90.9353    5.5490 C.3     1  UNL1        0.0233
      8 C          58.5859   91.2743    4.8811 C.3     1  UNL1        0.0939
      9 C          58.5965   92.1420    3.6576 C.3     1  UNL1        0.1106
     10 N          59.8961   92.4810    2.9898 N.pl3   1  UNL1       -0.3029
     11 C          61.1852   91.9523    3.5454 C.3     1  UNL1        0.1123
     12 C          61.1746   91.0846    4.7689 C.3     1  UNL1        0.1135
     13 N          59.8750   90.7456    5.4367 N.pl3   1  UNL1       -0.2914
     14 C          59.9067   93.3488    1.7663 C.ar    1  UNL1        0.0674
     15 C          59.6252   92.7503    0.4199 C.ar    1  UNL1        0.0174
     16 C          59.6358   93.6180   -0.8036 C.ar    1  UNL1        0.0183
     17 C          59.9277   95.0843   -0.6807 C.ar    1  UNL1        0.0831
     18 N          60.2092   95.6827    0.6656 N.ar    1  UNL1       -0.2446
     19 C          60.1986   94.8149    1.8891 C.ar    1  UNL1        0.1130
     20 C          59.9383   95.9519   -1.9042 C.3     1  UNL1        0.1232
     21 C          58.7117   96.6612   -1.4118 C.3     1  UNL1        0.0355
     22 C          61.1648   95.2427   -2.3967 C.3     1  UNL1        0.0355
     23 O          59.9488   96.8196   -3.1277 O.3     1  UNL1       -0.3812
     24 H          59.2033   97.4391   -3.0912 H       1  UNL1        0.2107
     25 C          61.2973   89.8926   10.3611 C.2     1  UNL1        0.2636
     26 O          60.5631   89.9789   11.6663 O.2     1  UNL1       -0.2685
     27 N          62.7531   90.2475   10.2947 N.am    1  UNL1       -0.3013
     28 H          63.2350   90.1908    9.4381 H       1  UNL1        0.1497
     29 C          63.4749   90.6887   11.5335 C.3     1  UNL1        0.0719
     30 C          63.1751   90.0342   12.8494 C.3     1  UNL1        0.0203
     31 C          64.1965   91.1299   12.7722 C.3     1  UNL1        0.0018
     32 C          64.9182   91.5711   14.0109 C.3     1  UNL1        0.0024
     33 C          65.2180   92.2256   12.6950 C.3     1  UNL1        0.0018
     34 C          64.4963   91.7845   11.4562 C.3     1  UNL1        0.0203
     35 C          64.3598   90.8313   14.5998 C.3     1  UNL1        0.0285
     36 C          63.5970   89.8208   15.4041 C.3     1  UNL1        0.0884
     37 O          63.2973   89.1663   16.7200 O.3     1  UNL1       -0.3867
     38 C          64.6184   90.9166   15.3269 C.3     1  UNL1        0.0269
     39 C          62.8754   89.3796   14.1654 C.3     1  UNL1        0.0285
     40 H          63.8463   89.5662   17.4126 H       1  UNL1        0.2102
@<TRIPOS>BOND
     1     8     7    1
     2     8     9    1
     3     9    10    1
     4    10    14    1
     5    14    15   ar
     6    15    16   ar
     7    16    17   ar
     8    17    20    1
     9    20    21    1
    10    20    22    1
    11    20    23    1
    12    17    18   ar
    13    18    19   ar
    14    10    11    1
    15    11    12    1
    16    12    13    1
    17    13     1    1
    18     1     2   ar
    19     2     3   ar
    20     3     4   ar
    21     4     5   ar
    22     5    25    1
    23    25    26    2
    24    25    27   am
    25    27    29    1
    26    29    30    1
    27    30    31    1
    28    31    32    1
    29    32    33    1
    30    33    34    1
    31    34    35    1
    32    35    36    1
    33    36    37    1
    34    36    38    1
    35    36    39    1
    36     5     6   ar
    37    13     8    1
    38     6     1   ar
    39    19    14   ar
    40    34    29    1
    41    39    30    1
    42    38    32    1
    43    23    24    1
    44    27    28    1
    45    37    40    1
