@<TRIPOS>MOLECULE
*****
 35 38 0 0 0
SMALL
GASTEIGER

@<TRIPOS>ATOM
      1 C          66.0054   92.8028   14.2331 C.3     1  UNL1        0.0796
      2 C          66.4955   93.9699   13.4285 C.3     1  UNL1        0.0178
      3 C          66.0979   94.1083   11.9888 C.3     1  UNL1        0.0030
      4 C          65.2102   93.0795   11.3536 C.3     1  UNL1        0.0216
      5 C          64.7200   91.9123   12.1582 C.3     1  UNL1        0.1232
      6 N          65.1176   91.7740   13.5979 N.3     1  UNL1       -0.1546
      7 C          67.8478   92.4966   16.0391 C.3     1  UNL1        0.0014
      8 C          66.4029   92.6644   15.6728 C.3     1  UNL1        0.0164
      9 C          65.3557   92.6938   16.7462 C.3     1  UNL1        0.0014
     10 S          64.6274   90.6067   14.4025 S.O2    1  UNL1        0.0633
     11 O          63.2998   91.2832   14.5752 O.2     1  UNL1       -0.1528
     12 O          65.9550   89.9302   14.2299 O.2     1  UNL1       -0.1528
     13 C          64.1373   89.4395   15.2071 C.ar    1  UNL1        0.1223
     14 C          63.2418   89.6663   16.3889 C.ar    1  UNL1        0.0208
     15 C          62.7516   88.4990   17.1934 C.ar    1  UNL1        0.0128
     16 C          63.1570   87.1050   16.8162 C.ar    1  UNL1        0.0578
     17 CL         62.6668   85.9378   17.6207 Cl      1  UNL1       -0.0822
     18 C          64.0524   86.8782   15.6344 C.ar    1  UNL1        0.0128
     19 C          64.5426   88.0454   14.8298 C.ar    1  UNL1        0.0208
     20 C          63.8322   90.8835   11.5231 C.3     1  UNL1        0.2276
     21 O          62.3417   91.0420   11.5784 O.3     1  UNL1       -0.4330
     22 C          61.4538   90.0105   10.9478 C.2     1  UNL1        0.4049
     23 O          60.2726   90.4378   10.1279 O.2     1  UNL1       -0.2262
     24 N          61.7471   88.5517   11.1371 N.am    1  UNL1       -0.2459
     25 C          62.9282   88.1243   11.9570 C.3     1  UNL1        0.0981
     26 C          63.2215   86.6656   12.1462 C.3     1  UNL1        0.0376
     27 C          62.3336   85.6340   11.5156 C.3     1  UNL1        0.0609
     28 C          61.1524   86.0613   10.6957 C.3     1  UNL1        0.0376
     29 C          60.8592   87.5202   10.5065 C.3     1  UNL1        0.0981
     30 N          62.6269   84.1752   11.7049 N.3     1  UNL1       -0.2738
     31 C          63.1703   83.3654   10.5652 C.3     1  UNL1        0.0720
     32 C          63.4636   81.9066   10.7544 C.3     1  UNL1        0.0174
     33 C          63.2135   81.2576   12.0835 C.3     1  UNL1        0.0029
     34 C          62.6701   82.0674   13.2232 C.3     1  UNL1        0.0174
     35 C          62.3768   83.5262   13.0338 C.3     1  UNL1        0.0720
@<TRIPOS>BOND
     1     7     8    1
     2     8     9    1
     3     1     8    1
     4     1     2    1
     5     2     3    1
     6     3     4    1
     7     4     5    1
     8     5    20    1
     9    20    21    1
    10    21    22    1
    11    22    23    2
    12    22    24   am
    13    24    25    1
    14    25    26    1
    15    26    27    1
    16    27    30    1
    17    30    31    1
    18    31    32    1
    19    32    33    1
    20    33    34    1
    21    34    35    1
    22    27    28    1
    23    28    29    1
    24     5     6    1
    25     6    10    1
    26    10    11    2
    27    10    12    2
    28    10    13    1
    29    13    14   ar
    30    14    15   ar
    31    15    16   ar
    32    16    17    1
    33    16    18   ar
    34    18    19   ar
    35     6     1    1
    36    19    13   ar
    37    29    24    1
    38    35    30    1
@<TRIPOS>MOLECULE
*****
 35 38 0 0 0
SMALL
GASTEIGER

@<TRIPOS>ATOM
      1 C          63.3358   84.0441   13.9621 C.3     1  UNL1        0.0796
      2 C          63.7569   84.0718   15.4015 C.3     1  UNL1        0.0178
      3 C          64.1361   85.3715   16.0471 C.3     1  UNL1        0.0030
      4 C          64.0942   86.6436   15.2534 C.3     1  UNL1        0.0216
      5 C          63.6730   86.6159   13.8141 C.3     1  UNL1        0.1232
      6 N          63.2938   85.3162   13.1684 N.3     1  UNL1       -0.1546
      7 C          61.6676   82.0717   13.6852 C.3     1  UNL1        0.0014
      8 C          62.9566   82.7444   13.3164 C.3     1  UNL1        0.0164
      9 C          63.8663   82.1174   12.3020 C.3     1  UNL1        0.0014
     10 S          62.8726   85.2886   11.7290 S.O2    1  UNL1        0.0633
     11 O          61.5487   85.8851   12.1049 O.2     1  UNL1       -0.1528
     12 O          64.1965   84.6921   11.3531 O.2     1  UNL1       -0.1528
     13 C          62.4515   85.2610   10.2896 C.ar    1  UNL1        0.1223
     14 C          61.1876   85.9479    9.8646 C.ar    1  UNL1        0.0208
     15 C          60.7665   85.9203    8.4251 C.ar    1  UNL1        0.0128
     16 C          61.6093   85.2057    7.4108 C.ar    1  UNL1        0.0578
     17 CL         61.1881   85.1780    5.9714 Cl      1  UNL1       -0.0822
     18 C          62.8732   84.5187    7.8358 C.ar    1  UNL1        0.0128
     19 C          63.2943   84.5464    9.2751 C.ar    1  UNL1        0.0208
     20 C          63.6310   87.8881   13.0203 C.3     1  UNL1        0.2276
     21 O          63.0510   89.1315   13.6264 O.3     1  UNL1       -0.4330
     22 C          63.9581   90.1835   14.1926 C.2     1  UNL1        0.4049
     23 O          64.2739   90.1913   15.6590 O.2     1  UNL1       -0.2262
     24 N          64.5494   91.2275   13.2925 N.am    1  UNL1       -0.2459
     25 C          64.2335   91.2197   11.8261 C.3     1  UNL1        0.0981
     26 C          64.8248   92.2638   10.9260 C.3     1  UNL1        0.0376
     27 C          65.7319   93.3158   11.4922 C.3     1  UNL1        0.0609
     28 C          66.0477   93.3236   12.9586 C.3     1  UNL1        0.0376
     29 C          65.4564   92.2794   13.8587 C.3     1  UNL1        0.0981
     30 N          66.3232   94.3599   10.5921 N.3     1  UNL1       -0.2738
     31 C          66.2070   95.8119   10.9502 C.3     1  UNL1        0.0720
     32 C          66.7982   96.8559   10.0501 C.3     1  UNL1        0.0174
     33 C          67.5057   96.4481    8.7918 C.3     1  UNL1        0.0029
     34 C          67.6219   94.9961    8.4337 C.3     1  UNL1        0.0174
     35 C          67.0306   93.9520    9.3339 C.3     1  UNL1        0.0720
@<TRIPOS>BOND
     1     7     8    1
     2     8     9    1
     3     1     8    1
     4     1     2    1
     5     2     3    1
     6     3     4    1
     7     4     5    1
     8     5    20    1
     9    20    21    1
    10    21    22    1
    11    22    23    2
    12    22    24   am
    13    24    25    1
    14    25    26    1
    15    26    27    1
    16    27    30    1
    17    30    31    1
    18    31    32    1
    19    32    33    1
    20    33    34    1
    21    34    35    1
    22    27    28    1
    23    28    29    1
    24     5     6    1
    25     6    10    1
    26    10    11    2
    27    10    12    2
    28    10    13    1
    29    13    14   ar
    30    14    15   ar
    31    15    16   ar
    32    16    17    1
    33    16    18   ar
    34    18    19   ar
    35     6     1    1
    36    19    13   ar
    37    29    24    1
    38    35    30    1
@<TRIPOS>MOLECULE
*****
 35 38 0 0 0
SMALL
GASTEIGER

@<TRIPOS>ATOM
      1 C          65.9367   91.5050   13.9479 C.3     1  UNL1        0.0796
      2 C          65.4393   90.4932   14.9373 C.3     1  UNL1        0.0178
      3 C          64.1476   89.7725   14.6880 C.3     1  UNL1        0.0030
      4 C          63.3533   90.0636   13.4494 C.3     1  UNL1        0.0216
      5 C          63.8506   91.0753   12.4600 C.3     1  UNL1        0.1232
      6 N          65.1423   91.7960   12.7092 N.3     1  UNL1       -0.1546
      7 C          68.4769   91.7949   13.4860 C.3     1  UNL1        0.0014
      8 C          67.2284   92.2256   14.1971 C.3     1  UNL1        0.0164
      9 C          67.2716   93.3771   15.1575 C.3     1  UNL1        0.0014
     10 S          65.6397   92.8078   11.7198 S.O2    1  UNL1        0.0633
     11 O          65.3306   93.9089   12.6902 O.2     1  UNL1       -0.1528
     12 O          65.9488   91.7067   10.7493 O.2     1  UNL1       -0.1528
     13 C          66.1370   93.8195   10.7303 C.ar    1  UNL1        0.1223
     14 C          65.4766   95.1629   10.6349 C.ar    1  UNL1        0.0208
     15 C          65.9740   96.1746    9.6454 C.ar    1  UNL1        0.0128
     16 C          67.1318   95.8429    8.7513 C.ar    1  UNL1        0.0578
     17 CL         67.6291   96.8546    7.7619 Cl      1  UNL1       -0.0822
     18 C          67.7922   94.4995    8.8467 C.ar    1  UNL1        0.0128
     19 C          67.2949   93.4878    9.8361 C.ar    1  UNL1        0.0208
     20 C          63.0563   91.3665   11.2213 C.3     1  UNL1        0.2276
     21 O          61.6529   90.8530   11.0924 O.3     1  UNL1       -0.4330
     22 C          61.3337   89.7869   10.0864 C.2     1  UNL1        0.4049
     23 O          60.6346   90.1464    8.8089 O.2     1  UNL1       -0.2262
     24 N          61.7136   88.3615   10.3580 N.am    1  UNL1       -0.2459
     25 C          62.4128   88.0020   11.6355 C.3     1  UNL1        0.0981
     26 C          62.7927   86.5766   11.9071 C.3     1  UNL1        0.0376
     27 C          62.4735   85.5106   10.9012 C.3     1  UNL1        0.0609
     28 C          61.7744   85.8701    9.6237 C.3     1  UNL1        0.0376
     29 C          61.3945   87.2956    9.3521 C.3     1  UNL1        0.0981
     30 N          62.8535   84.0852   11.1728 N.3     1  UNL1       -0.2738
     31 C          62.5441   83.4672   12.5041 C.3     1  UNL1        0.0720
     32 C          62.9241   82.0418   12.7757 C.3     1  UNL1        0.0174
     33 C          63.6134   81.2343   11.7159 C.3     1  UNL1        0.0029
     34 C          63.9227   81.8524   10.3847 C.3     1  UNL1        0.0174
     35 C          63.5428   83.2779   10.1131 C.3     1  UNL1        0.0720
@<TRIPOS>BOND
     1     7     8    1
     2     8     9    1
     3     1     8    1
     4     1     2    1
     5     2     3    1
     6     3     4    1
     7     4     5    1
     8     5    20    1
     9    20    21    1
    10    21    22    1
    11    22    23    2
    12    22    24   am
    13    24    25    1
    14    25    26    1
    15    26    27    1
    16    27    30    1
    17    30    31    1
    18    31    32    1
    19    32    33    1
    20    33    34    1
    21    34    35    1
    22    27    28    1
    23    28    29    1
    24     5     6    1
    25     6    10    1
    26    10    11    2
    27    10    12    2
    28    10    13    1
    29    13    14   ar
    30    14    15   ar
    31    15    16   ar
    32    16    17    1
    33    16    18   ar
    34    18    19   ar
    35     6     1    1
    36    19    13   ar
    37    29    24    1
    38    35    30    1
@<TRIPOS>MOLECULE
*****
 35 38 0 0 0
SMALL
GASTEIGER

@<TRIPOS>ATOM
      1 C          63.5481   85.1059   12.6526 C.3     1  UNL1        0.0796
      2 C          64.4204   84.6869   13.7986 C.3     1  UNL1        0.0178
      3 C          64.8508   85.6960   14.8216 C.3     1  UNL1        0.0030
      4 C          64.4089   87.1241   14.6985 C.3     1  UNL1        0.0216
      5 C          63.5366   87.5431   13.5525 C.3     1  UNL1        0.1232
      6 N          63.1062   86.5340   12.5295 N.3     1  UNL1       -0.1546
      7 C          62.2948   82.9131   12.0438 C.3     1  UNL1        0.0014
      8 C          63.1177   84.0968   11.6296 C.3     1  UNL1        0.0164
      9 C          63.5101   84.2715   10.1925 C.3     1  UNL1        0.0014
     10 S          62.2338   86.9531   11.3834 S.O2    1  UNL1        0.0633
     11 O          61.1053   86.1400   11.9450 O.2     1  UNL1       -0.1528
     12 O          63.3622   87.7662   10.8219 O.2     1  UNL1       -0.1528
     13 C          61.3615   87.3722   10.2374 C.ar    1  UNL1        0.1223
     14 C          60.6949   86.3345    9.3837 C.ar    1  UNL1        0.0208
     15 C          59.8226   86.7537    8.2376 C.ar    1  UNL1        0.0128
     16 C          59.6169   88.2104    7.9453 C.ar    1  UNL1        0.0578
     17 CL         58.7446   88.6295    6.7992 Cl      1  UNL1       -0.0822
     18 C          60.2835   89.2481    8.7990 C.ar    1  UNL1        0.0128
     19 C          61.1558   88.8290    9.9450 C.ar    1  UNL1        0.0208
     20 C          63.0946   88.9713   13.4294 C.3     1  UNL1        0.2276
     21 O          62.9333   89.8151   14.6590 O.3     1  UNL1       -0.4330
     22 C          63.9772   90.8327   15.0125 C.2     1  UNL1        0.4049
     23 O          64.3913   91.0166   16.4424 O.2     1  UNL1       -0.2262
     24 N          64.6068   91.6664   13.9362 N.am    1  UNL1       -0.2459
     25 C          64.1927   91.4824   12.5063 C.3     1  UNL1        0.0981
     26 C          64.8223   92.3161   11.4299 C.3     1  UNL1        0.0376
     27 C          65.8662   93.3337   11.7835 C.3     1  UNL1        0.0609
     28 C          66.2803   93.5176   13.2134 C.3     1  UNL1        0.0376
     29 C          65.6506   92.6839   14.2897 C.3     1  UNL1        0.0981
     30 N          66.4958   94.1673   10.7071 N.3     1  UNL1       -0.2738
     31 C          67.2271   93.5054    9.5770 C.3     1  UNL1        0.0720
     32 C          67.8567   94.3390    8.5007 C.3     1  UNL1        0.0174
     33 C          67.7552   95.8346    8.5544 C.3     1  UNL1        0.0029
     34 C          67.0240   96.4966    9.6845 C.3     1  UNL1        0.0174
     35 C          66.3943   95.6628   10.7609 C.3     1  UNL1        0.0720
@<TRIPOS>BOND
     1     7     8    1
     2     8     9    1
     3     1     8    1
     4     1     2    1
     5     2     3    1
     6     3     4    1
     7     4     5    1
     8     5    20    1
     9    20    21    1
    10    21    22    1
    11    22    23    2
    12    22    24   am
    13    24    25    1
    14    25    26    1
    15    26    27    1
    16    27    30    1
    17    30    31    1
    18    31    32    1
    19    32    33    1
    20    33    34    1
    21    34    35    1
    22    27    28    1
    23    28    29    1
    24     5     6    1
    25     6    10    1
    26    10    11    2
    27    10    12    2
    28    10    13    1
    29    13    14   ar
    30    14    15   ar
    31    15    16   ar
    32    16    17    1
    33    16    18   ar
    34    18    19   ar
    35     6     1    1
    36    19    13   ar
    37    29    24    1
    38    35    30    1
@<TRIPOS>MOLECULE
*****
 35 38 0 0 0
SMALL
GASTEIGER

@<TRIPOS>ATOM
      1 C          60.6667   87.9179    9.1480 C.3     1  UNL1        0.0796
      2 C          60.1444   89.2794    8.7970 C.3     1  UNL1        0.0178
      3 C          60.5235   90.4665    9.6320 C.3     1  UNL1        0.0030
      4 C          61.4251   90.2920   10.8180 C.3     1  UNL1        0.0216
      5 C          61.9475   88.9304   11.1690 C.3     1  UNL1        0.1232
      6 N          61.5683   87.7434   10.3340 N.3     1  UNL1       -0.1546
      7 C          58.8412   86.4016    8.0906 C.3     1  UNL1        0.0014
      8 C          60.2876   86.7309    8.3131 C.3     1  UNL1        0.0164
      9 C          61.3548   85.8731    7.7006 C.3     1  UNL1        0.0014
     10 S          62.0908   86.3818   10.6852 S.O2    1  UNL1        0.0633
     11 O          61.0045   86.2287   11.7081 O.2     1  UNL1       -0.1528
     12 O          63.1771   86.5349    9.6622 O.2     1  UNL1       -0.1528
     13 C          62.6132   85.0203   11.0362 C.ar    1  UNL1        0.1223
     14 C          63.3390   84.2069   10.0059 C.ar    1  UNL1        0.0208
     15 C          63.8615   82.8453   10.3570 C.ar    1  UNL1        0.0128
     16 C          63.6581   82.2972   11.7384 C.ar    1  UNL1        0.0578
     17 CL         64.1806   80.9357   12.0894 Cl      1  UNL1       -0.0822
     18 C          62.9323   83.1106   12.7687 C.ar    1  UNL1        0.0128
     19 C          62.4099   84.4722   12.4176 C.ar    1  UNL1        0.0208
     20 C          62.8491   88.7559   12.3551 C.3     1  UNL1        0.2276
     21 O          62.6712   89.6225   13.5664 O.3     1  UNL1       -0.4330
     22 C          63.8116   90.4612   14.0626 C.2     1  UNL1        0.4049
     23 O          64.2916   90.3136   15.4761 O.2     1  UNL1       -0.2262
     24 N          64.4719   91.4475   13.1455 N.am    1  UNL1       -0.2459
     25 C          63.9918   91.5951   11.7320 C.3     1  UNL1        0.0981
     26 C          64.6521   92.5814   10.8149 C.3     1  UNL1        0.0376
     27 C          65.7925   93.4201   11.3111 C.3     1  UNL1        0.0609
     28 C          66.2725   93.2725   12.7245 C.3     1  UNL1        0.0376
     29 C          65.6122   92.2861   13.6417 C.3     1  UNL1        0.0981
     30 N          66.4527   94.4064   10.3939 N.3     1  UNL1       -0.2738
     31 C          67.1070   93.9334    9.1297 C.3     1  UNL1        0.0720
     32 C          67.7673   94.9197    8.2125 C.3     1  UNL1        0.0174
     33 C          67.7733   96.3790    8.5595 C.3     1  UNL1        0.0029
     34 C          67.1190   96.8520    9.8237 C.3     1  UNL1        0.0174
     35 C          66.4587   95.8656   10.7409 C.3     1  UNL1        0.0720
@<TRIPOS>BOND
     1     7     8    1
     2     8     9    1
     3     1     8    1
     4     1     2    1
     5     2     3    1
     6     3     4    1
     7     4     5    1
     8     5    20    1
     9    20    21    1
    10    21    22    1
    11    22    23    2
    12    22    24   am
    13    24    25    1
    14    25    26    1
    15    26    27    1
    16    27    30    1
    17    30    31    1
    18    31    32    1
    19    32    33    1
    20    33    34    1
    21    34    35    1
    22    27    28    1
    23    28    29    1
    24     5     6    1
    25     6    10    1
    26    10    11    2
    27    10    12    2
    28    10    13    1
    29    13    14   ar
    30    14    15   ar
    31    15    16   ar
    32    16    17    1
    33    16    18   ar
    34    18    19   ar
    35     6     1    1
    36    19    13   ar
    37    29    24    1
    38    35    30    1
@<TRIPOS>MOLECULE
*****
 35 38 0 0 0
SMALL
GASTEIGER

@<TRIPOS>ATOM
      1 C          63.1102   83.8831   14.8320 C.3     1  UNL1        0.0796
      2 C          63.2623   83.9486   16.3228 C.3     1  UNL1        0.0178
      3 C          63.6728   85.2334   16.9791 C.3     1  UNL1        0.0030
      4 C          63.9312   86.4527   16.1446 C.3     1  UNL1        0.0216
      5 C          63.7791   86.3872   14.6538 C.3     1  UNL1        0.1232
      6 N          63.3686   85.1024   13.9975 N.3     1  UNL1       -0.1546
      7 C          61.2607   82.1753   14.1895 C.3     1  UNL1        0.0014
      8 C          62.6997   82.5983   14.1757 C.3     1  UNL1        0.0164
      9 C          63.7283   81.7364   13.5055 C.3     1  UNL1        0.0014
     10 S          63.2165   85.0370   12.5066 S.O2    1  UNL1        0.0633
     11 O          64.5918   84.4492   12.3921 O.2     1  UNL1       -0.1528
     12 O          61.8413   85.6248   12.6212 O.2     1  UNL1       -0.1528
     13 C          63.0644   84.9716   11.0158 C.ar    1  UNL1        0.1223
     14 C          62.3101   86.0466   10.2910 C.ar    1  UNL1        0.0208
     15 C          62.1579   85.9811    8.8001 C.ar    1  UNL1        0.0128
     16 C          62.7601   84.8407    8.0341 C.ar    1  UNL1        0.0578
     17 CL         62.6080   84.7753    6.5433 Cl      1  UNL1       -0.0822
     18 C          63.5145   83.7657    8.7590 C.ar    1  UNL1        0.0128
     19 C          63.6666   83.8311   10.2498 C.ar    1  UNL1        0.0208
     20 C          64.0375   87.6066   13.8192 C.3     1  UNL1        0.2276
     21 O          63.0401   88.7268   13.7991 O.3     1  UNL1       -0.4330
     22 C          62.6755   89.3831   12.5004 C.2     1  UNL1        0.4049
     23 O          61.4846   88.9022   11.7255 O.2     1  UNL1       -0.2262
     24 N          63.5017   90.5202   11.9768 N.am    1  UNL1       -0.2459
     25 C          64.6926   91.0011   12.7517 C.3     1  UNL1        0.0981
     26 C          65.5189   92.1382   12.2280 C.3     1  UNL1        0.0376
     27 C          65.1542   92.7945   10.9294 C.3     1  UNL1        0.0609
     28 C          63.9633   92.3136   10.1545 C.3     1  UNL1        0.0376
     29 C          63.1370   91.1764   10.6782 C.3     1  UNL1        0.0981
     30 N          65.9804   93.9316   10.4057 N.3     1  UNL1       -0.2738
     31 C          67.1138   93.6622    9.4608 C.3     1  UNL1        0.0720
     32 C          67.9401   94.7994    8.9372 C.3     1  UNL1        0.0174
     33 C          67.6329   96.2059    9.3584 C.3     1  UNL1        0.0029
     34 C          66.4995   96.4752   10.3033 C.3     1  UNL1        0.0174
     35 C          65.6733   95.3380   10.8270 C.3     1  UNL1        0.0720
@<TRIPOS>BOND
     1     7     8    1
     2     8     9    1
     3     1     8    1
     4     1     2    1
     5     2     3    1
     6     3     4    1
     7     4     5    1
     8     5    20    1
     9    20    21    1
    10    21    22    1
    11    22    23    2
    12    22    24   am
    13    24    25    1
    14    25    26    1
    15    26    27    1
    16    27    30    1
    17    30    31    1
    18    31    32    1
    19    32    33    1
    20    33    34    1
    21    34    35    1
    22    27    28    1
    23    28    29    1
    24     5     6    1
    25     6    10    1
    26    10    11    2
    27    10    12    2
    28    10    13    1
    29    13    14   ar
    30    14    15   ar
    31    15    16   ar
    32    16    17    1
    33    16    18   ar
    34    18    19   ar
    35     6     1    1
    36    19    13   ar
    37    29    24    1
    38    35    30    1
@<TRIPOS>MOLECULE
*****
 35 38 0 0 0
SMALL
GASTEIGER

@<TRIPOS>ATOM
      1 C          63.6311   82.2977   12.2923 C.3     1  UNL1        0.0796
      2 C          64.0603   81.0987   13.0848 C.3     1  UNL1        0.0178
      3 C          63.9587   81.1131   14.5813 C.3     1  UNL1        0.0030
      4 C          63.4279   82.3266   15.2853 C.3     1  UNL1        0.0216
      5 C          62.9987   83.5256   14.4928 C.3     1  UNL1        0.1232
      6 N          63.1003   83.5112   12.9964 N.3     1  UNL1       -0.1546
      7 C          63.0662   81.1938   10.0093 C.3     1  UNL1        0.0014
      8 C          63.7327   82.2833   10.7958 C.3     1  UNL1        0.0164
      9 C          64.5007   83.3585   10.0859 C.3     1  UNL1        0.0014
     10 S          62.6710   84.7104   12.2039 S.O2    1  UNL1        0.0633
     11 O          63.8167   85.4952   12.7709 O.2     1  UNL1       -0.1528
     12 O          61.5254   83.9255   11.6370 O.2     1  UNL1       -0.1528
     13 C          62.2418   85.9094   11.4115 C.ar    1  UNL1        0.1223
     14 C          62.6587   87.2835   11.8451 C.ar    1  UNL1        0.0208
     15 C          62.2294   88.4826   11.0526 C.ar    1  UNL1        0.0128
     16 C          61.3833   88.3075    9.8265 C.ar    1  UNL1        0.0578
     17 CL         60.9540   89.5066    9.0341 Cl      1  UNL1       -0.0822
     18 C          60.9664   86.9334    9.3929 C.ar    1  UNL1        0.0128
     19 C          61.3956   85.7344   10.1853 C.ar    1  UNL1        0.0208
     20 C          62.4678   84.7392   15.1969 C.3     1  UNL1        0.2276
     21 O          63.1375   85.2358   16.4438 O.3     1  UNL1       -0.4330
     22 C          62.8306   86.6088   16.9641 C.2     1  UNL1        0.4049
     23 O          61.9580   86.7751   18.1728 O.2     1  UNL1       -0.2262
     24 N          63.3962   87.8155   16.2757 N.am    1  UNL1       -0.2459
     25 C          64.2688   87.6492   15.0670 C.3     1  UNL1        0.0981
     26 C          64.8345   88.8558   14.3786 C.3     1  UNL1        0.0376
     27 C          64.5276   90.2289   14.8989 C.3     1  UNL1        0.0609
     28 C          63.6550   90.3952   16.1075 C.3     1  UNL1        0.0376
     29 C          63.0893   89.1884   16.7960 C.3     1  UNL1        0.0981
     30 N          65.0932   91.4356   14.2105 N.3     1  UNL1       -0.2738
     31 C          65.9539   92.3991   14.9725 C.3     1  UNL1        0.0720
     32 C          66.5196   93.6058   14.2841 C.3     1  UNL1        0.0174
     33 C          66.2246   93.8489   12.8336 C.3     1  UNL1        0.0029
     34 C          65.3639   92.8854   12.0715 C.3     1  UNL1        0.0174
     35 C          64.7982   91.6786   12.7600 C.3     1  UNL1        0.0720
@<TRIPOS>BOND
     1     7     8    1
     2     8     9    1
     3     1     8    1
     4     1     2    1
     5     2     3    1
     6     3     4    1
     7     4     5    1
     8     5    20    1
     9    20    21    1
    10    21    22    1
    11    22    23    2
    12    22    24   am
    13    24    25    1
    14    25    26    1
    15    26    27    1
    16    27    30    1
    17    30    31    1
    18    31    32    1
    19    32    33    1
    20    33    34    1
    21    34    35    1
    22    27    28    1
    23    28    29    1
    24     5     6    1
    25     6    10    1
    26    10    11    2
    27    10    12    2
    28    10    13    1
    29    13    14   ar
    30    14    15   ar
    31    15    16   ar
    32    16    17    1
    33    16    18   ar
    34    18    19   ar
    35     6     1    1
    36    19    13   ar
    37    29    24    1
    38    35    30    1
@<TRIPOS>MOLECULE
*****
 35 38 0 0 0
SMALL
GASTEIGER

@<TRIPOS>ATOM
      1 C          64.7938   92.0642   11.1909 C.3     1  UNL1        0.0796
      2 C          63.6800   91.6189   10.2904 C.3     1  UNL1        0.0178
      3 C          62.5539   90.7952   10.8412 C.3     1  UNL1        0.0030
      4 C          62.5417   90.4167   12.2926 C.3     1  UNL1        0.0216
      5 C          63.6556   90.8620   13.1931 C.3     1  UNL1        0.1232
      6 N          64.7817   91.6857   12.6423 N.3     1  UNL1       -0.1546
      7 C          65.7480   94.3668   10.4577 C.3     1  UNL1        0.0014
      8 C          65.9199   92.8879   10.6400 C.3     1  UNL1        0.0164
      9 C          67.2179   92.2328   10.2715 C.3     1  UNL1        0.0014
     10 S          65.8956   92.1309   13.5429 S.O2    1  UNL1        0.0633
     11 O          65.2919   93.5023   13.6117 O.2     1  UNL1       -0.1528
     12 O          66.4993   90.7596   13.4740 O.2     1  UNL1       -0.1528
     13 C          67.0095   92.5761   14.4434 C.ar    1  UNL1        0.1223
     14 C          67.8047   91.5616   15.2105 C.ar    1  UNL1        0.0208
     15 C          68.9187   92.0069   16.1111 C.ar    1  UNL1        0.0128
     16 C          69.2373   93.4665   16.2446 C.ar    1  UNL1        0.0578
     17 CL         70.3512   93.9117   17.1451 Cl      1  UNL1       -0.0822
     18 C          68.4420   94.4810   15.4775 C.ar    1  UNL1        0.0128
     19 C          67.3282   94.0358   14.5769 C.ar    1  UNL1        0.0208
     20 C          63.6435   90.4835   14.6446 C.3     1  UNL1        0.2276
     21 O          64.4013   89.2760   15.1112 O.3     1  UNL1       -0.4330
     22 C          63.7149   88.2364   15.9467 C.2     1  UNL1        0.4049
     23 O          63.2519   88.5740   17.3330 O.2     1  UNL1       -0.2262
     24 N          63.4915   86.8592   15.3960 N.am    1  UNL1       -0.2459
     25 C          63.9544   86.5215   14.0097 C.3     1  UNL1        0.0981
     26 C          63.7310   85.1443   13.4590 C.3     1  UNL1        0.0376
     27 C          63.0446   84.1047   14.2946 C.3     1  UNL1        0.0609
     28 C          62.5817   84.4423   15.6808 C.3     1  UNL1        0.0376
     29 C          62.8051   85.8196   16.2315 C.3     1  UNL1        0.0981
     30 N          62.8212   82.7275   13.7439 N.3     1  UNL1       -0.2738
     31 C          61.8793   81.7869   14.4353 C.3     1  UNL1        0.0720
     32 C          61.6559   80.4097   13.8846 C.3     1  UNL1        0.0174
     33 C          62.3744   79.9730   12.6423 C.3     1  UNL1        0.0029
     34 C          63.3164   80.9135   11.9509 C.3     1  UNL1        0.0174
     35 C          63.5398   82.2908   12.5017 C.3     1  UNL1        0.0720
@<TRIPOS>BOND
     1     7     8    1
     2     8     9    1
     3     1     8    1
     4     1     2    1
     5     2     3    1
     6     3     4    1
     7     4     5    1
     8     5    20    1
     9    20    21    1
    10    21    22    1
    11    22    23    2
    12    22    24   am
    13    24    25    1
    14    25    26    1
    15    26    27    1
    16    27    30    1
    17    30    31    1
    18    31    32    1
    19    32    33    1
    20    33    34    1
    21    34    35    1
    22    27    28    1
    23    28    29    1
    24     5     6    1
    25     6    10    1
    26    10    11    2
    27    10    12    2
    28    10    13    1
    29    13    14   ar
    30    14    15   ar
    31    15    16   ar
    32    16    17    1
    33    16    18   ar
    34    18    19   ar
    35     6     1    1
    36    19    13   ar
    37    29    24    1
    38    35    30    1
