@<TRIPOS>MOLECULE
*****
 34 38 0 0 0
SMALL
GASTEIGER

@<TRIPOS>ATOM
      1 C          61.5736   88.1355    9.6122 C.3     1  UNL1        0.0024
      2 C          62.2975   87.8061   10.8840 C.3     1  UNL1        0.0248
      3 C          61.7413   86.6093   10.1709 C.3     1  UNL1        0.0027
      4 C          61.9350   85.2372   10.7450 C.3     1  UNL1        0.0044
      5 C          62.6848   85.0617   12.0323 C.3     1  UNL1        0.0220
      6 C          62.8784   83.6895   12.6064 C.ar    1  UNL1       -0.0263
      7 C          62.3222   82.4928   11.8933 C.ar    1  UNL1       -0.0015
      8 C          62.5159   81.1206   12.4674 C.ar    1  UNL1        0.0363
      9 C          63.2657   80.9452   13.7547 C.ar    1  UNL1        0.1333
     10 O          63.4593   79.5730   14.3288 O.3     1  UNL1       -0.5055
     11 C          63.8219   82.1419   14.4678 C.ar    1  UNL1        0.0320
     12 C          63.6282   83.5140   13.8936 C.ar    1  UNL1       -0.0231
     13 C          64.1844   84.7108   14.6067 C.3     1  UNL1        0.0261
     14 C          63.9908   86.0829   14.0326 C.3     1  UNL1        0.0050
     15 C          63.2410   86.2584   12.7454 C.3     1  UNL1        0.0044
     16 C          63.0473   87.6306   12.1712 C.3     1  UNL1        0.0027
     17 C          63.4781   88.9869   12.6453 C.3     1  UNL1        0.0028
     18 C          62.9945   90.0006   11.6511 C.3     1  UNL1        0.0313
     19 C          62.2649   89.2708   10.5625 C.3     1  UNL1        0.1106
     20 O          61.6164   89.8960    9.3631 O.3     1  UNL1       -0.3845
     21 H          63.1119   78.8254   13.8834 H       1  UNL1        0.2922
     22 H          61.7393   90.8577    9.3936 H       1  UNL1        0.2103
     23 C          63.2038   91.4838   11.7313 C.3     1  UNL1        0.0287
     24 C          64.5879   92.0381   11.8955 C.ar    1  UNL1       -0.0220
     25 C          65.2921   91.9185   13.2146 C.ar    1  UNL1       -0.0043
     26 C          66.6762   92.4728   13.3789 C.ar    1  UNL1       -0.0002
     27 C          67.3561   93.1467   12.2241 C.ar    1  UNL1        0.0045
     28 C          66.6520   93.2663   10.9051 C.ar    1  UNL1        0.0528
     29 C          65.2679   92.7120   10.7408 C.ar    1  UNL1        0.0002
     30 C          67.3320   93.9402    9.7503 C.2     1  UNL1        0.2427
     31 N          66.5262   94.7325    8.7640 N.am    1  UNL1       -0.3253
     32 O          68.8179   93.8218    9.5819 O.2     1  UNL1       -0.2704
     33 H          65.5510   94.8102    8.8745 H       1  UNL1        0.1453
     34 H          66.9725   95.1748    8.0061 H       1  UNL1        0.1453
@<TRIPOS>BOND
     1     2     1    1
     2     2     3    1
     3     3     4    1
     4     5     4    1
     5     5     6    1
     6     6     7   ar
     7     7     8   ar
     8     8     9   ar
     9     9    10    1
    10     9    11   ar
    11    11    12   ar
    12    12    13    1
    13    13    14    1
    14    15    14    1
    15    15    16    1
    16    16    17    1
    17    17    18    1
    18    18    23    1
    19    23    24    1
    20    24    25   ar
    21    25    26   ar
    22    26    27   ar
    23    27    28   ar
    24    28    30    1
    25    30    31   am
    26    30    32    2
    27    28    29   ar
    28    18    19    1
    29    19    20    1
    30    16     2    1
    31    29    24   ar
    32    19     2    1
    33    15     5    1
    34    12     6   ar
    35    10    21    1
    36    31    33    1
    37    31    34    1
    38    20    22    1
@<TRIPOS>MOLECULE
*****
 34 38 0 0 0
SMALL
GASTEIGER

@<TRIPOS>ATOM
      1 C          61.6285   88.1603    9.6796 C.3     1  UNL1        0.0024
      2 C          62.3402   87.8145   10.9540 C.3     1  UNL1        0.0248
      3 C          61.7859   86.6276   10.2232 C.3     1  UNL1        0.0027
      4 C          61.9696   85.2486   10.7841 C.3     1  UNL1        0.0044
      5 C          62.7076   85.0565   12.0758 C.3     1  UNL1        0.0220
      6 C          62.8914   83.6775   12.6367 C.ar    1  UNL1       -0.0263
      7 C          62.3371   82.4906   11.9060 C.ar    1  UNL1       -0.0015
      8 C          62.5208   81.1117   12.4669 C.ar    1  UNL1        0.0363
      9 C          63.2589   80.9196   13.7586 C.ar    1  UNL1        0.1333
     10 O          63.4426   79.5405   14.3195 O.3     1  UNL1       -0.5055
     11 C          63.8132   82.1065   14.4893 C.ar    1  UNL1        0.0320
     12 C          63.6294   83.4854   13.9284 C.ar    1  UNL1       -0.0231
     13 C          64.1837   84.6724   14.6591 C.3     1  UNL1        0.0261
     14 C          64.0000   86.0513   14.0982 C.3     1  UNL1        0.0050
     15 C          63.2619   86.2434   12.8066 C.3     1  UNL1        0.0044
     16 C          63.0782   87.6225   12.2457 C.3     1  UNL1        0.0027
     17 C          63.5097   88.9719   12.7380 C.3     1  UNL1        0.0028
     18 C          63.0384   89.9981   11.7507 C.3     1  UNL1        0.0313
     19 C          62.3156   89.2827   10.6481 C.3     1  UNL1        0.1106
     20 O          61.6798   89.9233    9.4500 O.3     1  UNL1       -0.3845
     21 H          63.0963   78.7991   13.8630 H       1  UNL1        0.2922
     22 H          61.8059   90.8841    9.4919 H       1  UNL1        0.2103
     23 C          63.2524   91.4795   11.8488 C.3     1  UNL1        0.0287
     24 C          64.6447   92.0374   11.8551 C.ar    1  UNL1       -0.0220
     25 C          65.2468   92.5659   10.5869 C.ar    1  UNL1       -0.0043
     26 C          66.6391   93.1238   10.5933 C.ar    1  UNL1       -0.0002
     27 C          67.4295   93.1533   11.8678 C.ar    1  UNL1        0.0045
     28 C          66.8275   92.6249   13.1360 C.ar    1  UNL1        0.0528
     29 C          65.4351   92.0669   13.1297 C.ar    1  UNL1        0.0002
     30 C          67.6178   92.6543   14.4105 C.2     1  UNL1        0.2427
     31 N          69.0767   92.3059   14.3966 N.am    1  UNL1       -0.3253
     32 O          66.9492   93.0323   15.6991 O.2     1  UNL1       -0.2704
     33 H          69.5155   92.0579   13.5509 H       1  UNL1        0.1453
     34 H          69.5954   92.3252   15.2331 H       1  UNL1        0.1453
@<TRIPOS>BOND
     1     2     1    1
     2     2     3    1
     3     3     4    1
     4     5     4    1
     5     5     6    1
     6     6     7   ar
     7     7     8   ar
     8     8     9   ar
     9     9    10    1
    10     9    11   ar
    11    11    12   ar
    12    12    13    1
    13    13    14    1
    14    15    14    1
    15    15    16    1
    16    16    17    1
    17    17    18    1
    18    18    23    1
    19    23    24    1
    20    24    25   ar
    21    25    26   ar
    22    26    27   ar
    23    27    28   ar
    24    28    30    1
    25    30    31   am
    26    30    32    2
    27    28    29   ar
    28    18    19    1
    29    19    20    1
    30    16     2    1
    31    29    24   ar
    32    19     2    1
    33    15     5    1
    34    12     6   ar
    35    10    21    1
    36    31    33    1
    37    31    34    1
    38    20    22    1
@<TRIPOS>MOLECULE
*****
 34 38 0 0 0
SMALL
GASTEIGER

@<TRIPOS>ATOM
      1 C          62.1010   88.4110   10.3335 C.3     1  UNL1        0.0024
      2 C          62.7316   87.8839   11.5884 C.3     1  UNL1        0.0248
      3 C          62.1288   86.8227   10.7162 C.3     1  UNL1        0.0027
      4 C          62.1927   85.3834   11.1333 C.3     1  UNL1        0.0044
      5 C          62.8595   85.0050   12.4226 C.3     1  UNL1        0.0220
      6 C          62.9234   83.5656   12.8397 C.ar    1  UNL1       -0.0263
      7 C          62.3206   82.5045   11.9675 C.ar    1  UNL1       -0.0015
      8 C          62.3846   81.0651   12.3847 C.ar    1  UNL1        0.0363
      9 C          63.0513   80.6868   13.6740 C.ar    1  UNL1        0.1333
     10 O          63.1152   79.2473   14.0911 O.3     1  UNL1       -0.5055
     11 C          63.6541   81.7479   14.5462 C.ar    1  UNL1        0.0320
     12 C          63.5901   83.1872   14.1290 C.ar    1  UNL1       -0.0231
     13 C          64.1929   84.2484   15.0012 C.3     1  UNL1        0.0261
     14 C          64.1290   85.6878   14.5841 C.3     1  UNL1        0.0050
     15 C          63.4623   86.0661   13.2948 C.3     1  UNL1        0.0044
     16 C          63.3983   87.5056   12.8777 C.3     1  UNL1        0.0027
     17 C          63.9002   88.7616   13.5259 C.3     1  UNL1        0.0028
     18 C          63.5437   89.9162   12.6373 C.3     1  UNL1        0.0313
     19 C          62.8214   89.3737   11.4398 C.3     1  UNL1        0.1106
     20 O          62.2835   90.1797   10.2948 O.3     1  UNL1       -0.3845
     21 H          62.7387   78.5845   13.5463 H       1  UNL1        0.2922
     22 H          62.4736   91.1193   10.4433 H       1  UNL1        0.2103
     23 C          63.8548   91.3599   12.9000 C.3     1  UNL1        0.0287
     24 C          64.8676   91.7313   13.9423 C.ar    1  UNL1       -0.0220
     25 C          64.4404   91.9289   15.3665 C.ar    1  UNL1       -0.0043
     26 C          65.4532   92.3002   16.4088 C.ar    1  UNL1       -0.0002
     27 C          66.8933   92.4739   16.0268 C.ar    1  UNL1        0.0045
     28 C          67.3206   92.2764   14.6026 C.ar    1  UNL1        0.0528
     29 C          66.3077   91.9050   13.5603 C.ar    1  UNL1        0.0002
     30 C          68.7607   92.4501   14.2206 C.2     1  UNL1        0.2427
     31 N          69.3079   91.7424   13.0166 N.am    1  UNL1       -0.3253
     32 O          69.6536   93.3316   15.0428 O.2     1  UNL1       -0.2704
     33 H          68.7219   91.1639   12.4771 H       1  UNL1        0.1453
     34 H          70.2531   91.8565   12.7659 H       1  UNL1        0.1453
@<TRIPOS>BOND
     1     2     1    1
     2     2     3    1
     3     3     4    1
     4     5     4    1
     5     5     6    1
     6     6     7   ar
     7     7     8   ar
     8     8     9   ar
     9     9    10    1
    10     9    11   ar
    11    11    12   ar
    12    12    13    1
    13    13    14    1
    14    15    14    1
    15    15    16    1
    16    16    17    1
    17    17    18    1
    18    18    23    1
    19    23    24    1
    20    24    25   ar
    21    25    26   ar
    22    26    27   ar
    23    27    28   ar
    24    28    30    1
    25    30    31   am
    26    30    32    2
    27    28    29   ar
    28    18    19    1
    29    19    20    1
    30    16     2    1
    31    29    24   ar
    32    19     2    1
    33    15     5    1
    34    12     6   ar
    35    10    21    1
    36    31    33    1
    37    31    34    1
    38    20    22    1
@<TRIPOS>MOLECULE
*****
 34 38 0 0 0
SMALL
GASTEIGER

@<TRIPOS>ATOM
      1 C          62.9237   85.5692   16.7947 C.3     1  UNL1        0.0024
      2 C          63.2658   85.4983   15.3360 C.3     1  UNL1        0.0248
      3 C          62.7838   84.2005   15.9135 C.3     1  UNL1        0.0027
      4 C          62.6813   82.9839   15.0421 C.3     1  UNL1        0.0044
      5 C          63.0606   83.0651   13.5931 C.3     1  UNL1        0.0220
      6 C          62.9581   81.8484   12.7217 C.ar    1  UNL1       -0.0263
      7 C          62.4761   80.5507   13.2992 C.ar    1  UNL1       -0.0015
      8 C          62.3736   79.3341   12.4278 C.ar    1  UNL1        0.0363
      9 C          62.7530   79.4153   10.9789 C.ar    1  UNL1        0.1333
     10 O          62.6504   78.1987   10.1074 O.3     1  UNL1       -0.5055
     11 C          63.2349   80.7130   10.4013 C.ar    1  UNL1        0.0320
     12 C          63.3374   81.9296   11.2727 C.ar    1  UNL1       -0.0231
     13 C          63.8193   83.2274   10.6952 C.3     1  UNL1        0.0261
     14 C          63.9219   84.4440   11.5666 C.3     1  UNL1        0.0050
     15 C          63.5425   84.3628   13.0156 C.3     1  UNL1        0.0044
     16 C          63.6451   85.5795   13.8870 C.3     1  UNL1        0.0027
     17 C          64.0833   86.9851   13.6006 C.3     1  UNL1        0.0028
     18 C          63.9747   87.7727   14.8726 C.3     1  UNL1        0.0313
     19 C          63.4695   86.8538   15.9451 C.3     1  UNL1        0.1106
     20 O          63.2130   87.2252   17.3756 O.3     1  UNL1       -0.3845
     21 H          62.3493   77.3880   10.4682 H       1  UNL1        0.2922
     22 H          63.4248   88.1623   17.5093 H       1  UNL1        0.2103
     23 C          64.3122   89.2244   15.0423 C.3     1  UNL1        0.0287
     24 C          64.3319   90.1341   13.8498 C.ar    1  UNL1       -0.0220
     25 C          63.4523   89.8435   12.6700 C.ar    1  UNL1       -0.0043
     26 C          63.4721   90.7532   11.4776 C.ar    1  UNL1       -0.0002
     27 C          64.3715   91.9536   11.4649 C.ar    1  UNL1        0.0045
     28 C          65.2511   92.2443   12.6446 C.ar    1  UNL1        0.0528
     29 C          65.2313   91.3345   13.8371 C.ar    1  UNL1        0.0002
     30 C          66.1505   93.4446   12.6319 C.2     1  UNL1        0.2427
     31 N          66.9004   93.8068   11.3843 N.am    1  UNL1       -0.3253
     32 O          66.3000   94.2829   13.8668 O.2     1  UNL1       -0.2704
     33 H          66.8023   93.2566   10.5738 H       1  UNL1        0.1453
     34 H          67.4907   94.5946   11.3760 H       1  UNL1        0.1453
@<TRIPOS>BOND
     1     2     1    1
     2     2     3    1
     3     3     4    1
     4     5     4    1
     5     5     6    1
     6     6     7   ar
     7     7     8   ar
     8     8     9   ar
     9     9    10    1
    10     9    11   ar
    11    11    12   ar
    12    12    13    1
    13    13    14    1
    14    15    14    1
    15    15    16    1
    16    16    17    1
    17    17    18    1
    18    18    23    1
    19    23    24    1
    20    24    25   ar
    21    25    26   ar
    22    26    27   ar
    23    27    28   ar
    24    28    30    1
    25    30    31   am
    26    30    32    2
    27    28    29   ar
    28    18    19    1
    29    19    20    1
    30    16     2    1
    31    29    24   ar
    32    19     2    1
    33    15     5    1
    34    12     6   ar
    35    10    21    1
    36    31    33    1
    37    31    34    1
    38    20    22    1
@<TRIPOS>MOLECULE
*****
 34 38 0 0 0
SMALL
GASTEIGER

@<TRIPOS>ATOM
      1 C          62.8851   86.7454   17.4630 C.3     1  UNL1        0.0024
      2 C          63.1510   86.6188   15.9922 C.3     1  UNL1        0.0248
      3 C          62.7739   85.3283   16.6574 C.3     1  UNL1        0.0027
      4 C          62.6921   84.0654   15.8522 C.3     1  UNL1        0.0044
      5 C          62.9873   84.0930   14.3818 C.3     1  UNL1        0.0220
      6 C          62.9054   82.8300   13.5766 C.ar    1  UNL1       -0.0263
      7 C          62.5284   81.5396   14.2418 C.ar    1  UNL1       -0.0015
      8 C          62.4465   80.2767   13.4366 C.ar    1  UNL1        0.0363
      9 C          62.7417   80.3042   11.9662 C.ar    1  UNL1        0.1333
     10 O          62.6598   79.0412   11.1610 O.3     1  UNL1       -0.5055
     11 C          63.1187   81.5947   11.3010 C.ar    1  UNL1        0.0320
     12 C          63.2006   82.8575   12.1062 C.ar    1  UNL1       -0.0231
     13 C          63.5776   84.1481   11.4409 C.3     1  UNL1        0.0261
     14 C          63.6595   85.4110   12.2461 C.3     1  UNL1        0.0050
     15 C          63.3643   85.3834   13.7165 C.3     1  UNL1        0.0044
     16 C          63.4462   86.6464   14.5217 C.3     1  UNL1        0.0027
     17 C          63.7894   88.0569   14.1442 C.3     1  UNL1        0.0028
     18 C          63.7063   88.9011   15.3813 C.3     1  UNL1        0.0313
     19 C          63.3118   88.0123   16.5234 C.3     1  UNL1        0.1106
     20 O          63.1129   88.4417   17.9468 O.3     1  UNL1       -0.3845
     21 H          62.4243   78.2351   11.5766 H       1  UNL1        0.2922
     22 H          63.2793   89.3943   18.0234 H       1  UNL1        0.2103
     23 C          63.9713   90.3753   15.4621 C.3     1  UNL1        0.0287
     24 C          64.8928   91.0270   14.4741 C.ar    1  UNL1       -0.0220
     25 C          64.3986   91.3681   13.0995 C.ar    1  UNL1       -0.0043
     26 C          65.3201   92.0198   12.1115 C.ar    1  UNL1       -0.0002
     27 C          66.7358   92.3303   12.4981 C.ar    1  UNL1        0.0045
     28 C          67.2299   91.9893   13.8727 C.ar    1  UNL1        0.0528
     29 C          66.3084   91.3376   14.8607 C.ar    1  UNL1        0.0002
     30 C          68.6456   92.2999   14.2593 C.2     1  UNL1        0.2427
     31 N          69.7734   91.9152   13.3483 N.am    1  UNL1       -0.3253
     32 O          68.9334   92.9952   15.5569 O.2     1  UNL1       -0.2704
     33 H          69.5846   91.4588   12.4966 H       1  UNL1        0.1453
     34 H          70.7026   92.1190   13.6020 H       1  UNL1        0.1453
@<TRIPOS>BOND
     1     2     1    1
     2     2     3    1
     3     3     4    1
     4     5     4    1
     5     5     6    1
     6     6     7   ar
     7     7     8   ar
     8     8     9   ar
     9     9    10    1
    10     9    11   ar
    11    11    12   ar
    12    12    13    1
    13    13    14    1
    14    15    14    1
    15    15    16    1
    16    16    17    1
    17    17    18    1
    18    18    23    1
    19    23    24    1
    20    24    25   ar
    21    25    26   ar
    22    26    27   ar
    23    27    28   ar
    24    28    30    1
    25    30    31   am
    26    30    32    2
    27    28    29   ar
    28    18    19    1
    29    19    20    1
    30    16     2    1
    31    29    24   ar
    32    19     2    1
    33    15     5    1
    34    12     6   ar
    35    10    21    1
    36    31    33    1
    37    31    34    1
    38    20    22    1
@<TRIPOS>MOLECULE
*****
 34 38 0 0 0
SMALL
GASTEIGER

@<TRIPOS>ATOM
      1 C          62.8675   86.7084   17.4481 C.3     1  UNL1        0.0024
      2 C          63.1767   86.5736   15.9866 C.3     1  UNL1        0.0248
      3 C          62.7455   85.2938   16.6395 C.3     1  UNL1        0.0027
      4 C          62.6567   84.0327   15.8323 C.3     1  UNL1        0.0044
      5 C          62.9992   84.0513   14.3720 C.3     1  UNL1        0.0220
      6 C          62.9104   82.7901   13.5647 C.ar    1  UNL1       -0.0263
      7 C          62.4792   81.5105   14.2177 C.ar    1  UNL1       -0.0015
      8 C          62.3905   80.2494   13.4105 C.ar    1  UNL1        0.0363
      9 C          62.7329   80.2680   11.9502 C.ar    1  UNL1        0.1333
     10 O          62.6441   79.0068   11.1429 O.3     1  UNL1       -0.5055
     11 C          63.1641   81.5476   11.2972 C.ar    1  UNL1        0.0320
     12 C          63.2529   82.8087   12.1045 C.ar    1  UNL1       -0.0231
     13 C          63.6841   84.0885   11.4515 C.3     1  UNL1        0.0261
     14 C          63.7728   85.3496   12.2587 C.3     1  UNL1        0.0050
     15 C          63.4304   85.3310   13.7190 C.3     1  UNL1        0.0044
     16 C          63.5192   86.5922   14.5263 C.3     1  UNL1        0.0027
     17 C          63.9105   87.9930   14.1598 C.3     1  UNL1        0.0028
     18 C          63.8099   88.8402   15.3935 C.3     1  UNL1        0.0313
     19 C          63.3564   87.9629   16.5225 C.3     1  UNL1        0.1106
     20 O          63.1235   88.3986   17.9388 O.3     1  UNL1       -0.3845
     21 H          62.3748   78.2074   11.5508 H       1  UNL1        0.2922
     22 H          63.3119   89.3466   18.0206 H       1  UNL1        0.2103
     23 C          64.1101   90.3072   15.4826 C.3     1  UNL1        0.0287
     24 C          64.9999   90.9539   14.4628 C.ar    1  UNL1       -0.0220
     25 C          66.4515   91.1773   14.7678 C.ar    1  UNL1       -0.0043
     26 C          67.3412   91.8241   13.7480 C.ar    1  UNL1       -0.0002
     27 C          66.7794   92.2474   12.4231 C.ar    1  UNL1        0.0045
     28 C          65.3279   92.0240   12.1181 C.ar    1  UNL1        0.0528
     29 C          64.4381   91.3773   13.1379 C.ar    1  UNL1        0.0002
     30 C          64.7661   92.4474   10.7933 C.2     1  UNL1        0.2427
     31 N          65.3865   93.5906   10.0463 N.am    1  UNL1       -0.3253
     32 O          63.5838   91.7274   10.2154 O.2     1  UNL1       -0.2704
     33 H          66.1625   94.0632   10.4256 H       1  UNL1        0.1453
     34 H          65.0178   93.8685    9.1768 H       1  UNL1        0.1453
@<TRIPOS>BOND
     1     2     1    1
     2     2     3    1
     3     3     4    1
     4     5     4    1
     5     5     6    1
     6     6     7   ar
     7     7     8   ar
     8     8     9   ar
     9     9    10    1
    10     9    11   ar
    11    11    12   ar
    12    12    13    1
    13    13    14    1
    14    15    14    1
    15    15    16    1
    16    16    17    1
    17    17    18    1
    18    18    23    1
    19    23    24    1
    20    24    25   ar
    21    25    26   ar
    22    26    27   ar
    23    27    28   ar
    24    28    30    1
    25    30    31   am
    26    30    32    2
    27    28    29   ar
    28    18    19    1
    29    19    20    1
    30    16     2    1
    31    29    24   ar
    32    19     2    1
    33    15     5    1
    34    12     6   ar
    35    10    21    1
    36    31    33    1
    37    31    34    1
    38    20    22    1
@<TRIPOS>MOLECULE
*****
 34 38 0 0 0
SMALL
GASTEIGER

@<TRIPOS>ATOM
      1 C          64.2601   88.2364   15.3105 C.3     1  UNL1        0.0024
      2 C          63.7751   87.6636   14.0118 C.3     1  UNL1        0.0248
      3 C          64.0785   86.6324   15.0581 C.3     1  UNL1        0.0027
      4 C          63.8875   85.1761   14.7535 C.3     1  UNL1        0.0044
      5 C          63.3930   84.7510   13.4026 C.3     1  UNL1        0.0220
      6 C          63.2019   83.2947   13.0980 C.ar    1  UNL1       -0.0263
      7 C          63.5053   82.2636   14.1443 C.ar    1  UNL1       -0.0015
      8 C          63.3142   80.8074   13.8397 C.ar    1  UNL1        0.0363
      9 C          62.8198   80.3823   12.4888 C.ar    1  UNL1        0.1333
     10 O          62.6287   78.9259   12.1843 O.3     1  UNL1       -0.5055
     11 C          62.5163   81.4134   11.4426 C.ar    1  UNL1        0.0320
     12 C          62.7074   82.8696   11.7472 C.ar    1  UNL1       -0.0231
     13 C          62.4040   83.9008   10.7009 C.3     1  UNL1        0.0261
     14 C          62.5951   85.3571   11.0055 C.3     1  UNL1        0.0050
     15 C          63.0896   85.7822   12.3564 C.3     1  UNL1        0.0044
     16 C          63.2806   87.2385   12.6610 C.3     1  UNL1        0.0027
     17 C          63.0662   88.4729   11.8363 C.3     1  UNL1        0.0028
     18 C          63.4281   89.6610   12.6775 C.3     1  UNL1        0.0313
     19 C          63.8662   89.1607   14.0220 C.3     1  UNL1        0.1106
     20 O          64.3165   90.0089   15.1744 O.3     1  UNL1       -0.3845
     21 H          62.8182   78.2818   12.8378 H       1  UNL1        0.2922
     22 H          64.2827   90.9443   14.9200 H       1  UNL1        0.2103
     23 C          63.3632   91.0971   12.2493 C.3     1  UNL1        0.0287
     24 C          64.6280   91.8800   12.0561 C.ar    1  UNL1       -0.0220
     25 C          64.9184   92.5210   10.7313 C.ar    1  UNL1       -0.0043
     26 C          66.1831   93.3039   10.5381 C.ar    1  UNL1       -0.0002
     27 C          67.1576   93.4458   11.6696 C.ar    1  UNL1        0.0045
     28 C          66.8673   92.8048   12.9943 C.ar    1  UNL1        0.0528
     29 C          65.6025   92.0219   13.1876 C.ar    1  UNL1        0.0002
     30 C          67.8418   92.9467   14.1258 C.2     1  UNL1        0.2427
     31 N          69.2012   92.3203   14.0278 N.am    1  UNL1       -0.3253
     32 O          67.4568   93.7150   15.3553 O.2     1  UNL1       -0.2704
     33 H          69.4539   91.8161   13.2209 H       1  UNL1        0.1453
     34 H          69.8408   92.4135   14.7705 H       1  UNL1        0.1453
@<TRIPOS>BOND
     1     2     1    1
     2     2     3    1
     3     3     4    1
     4     5     4    1
     5     5     6    1
     6     6     7   ar
     7     7     8   ar
     8     8     9   ar
     9     9    10    1
    10     9    11   ar
    11    11    12   ar
    12    12    13    1
    13    13    14    1
    14    15    14    1
    15    15    16    1
    16    16    17    1
    17    17    18    1
    18    18    23    1
    19    23    24    1
    20    24    25   ar
    21    25    26   ar
    22    26    27   ar
    23    27    28   ar
    24    28    30    1
    25    30    31   am
    26    30    32    2
    27    28    29   ar
    28    18    19    1
    29    19    20    1
    30    16     2    1
    31    29    24   ar
    32    19     2    1
    33    15     5    1
    34    12     6   ar
    35    10    21    1
    36    31    33    1
    37    31    34    1
    38    20    22    1
@<TRIPOS>MOLECULE
*****
 34 38 0 0 0
SMALL
GASTEIGER

@<TRIPOS>ATOM
      1 C          64.3585   88.4227   15.2319 C.3     1  UNL1        0.0024
      2 C          63.8472   87.8395   13.9479 C.3     1  UNL1        0.0248
      3 C          64.1691   86.8169   14.9971 C.3     1  UNL1        0.0027
      4 C          63.9694   85.3584   14.7090 C.3     1  UNL1        0.0044
      5 C          63.4479   84.9226   13.3718 C.3     1  UNL1        0.0220
      6 C          63.2483   83.4640   13.0838 C.ar    1  UNL1       -0.0263
      7 C          63.5701   82.4414   14.1329 C.ar    1  UNL1       -0.0015
      8 C          63.3705   80.9830   13.8449 C.ar    1  UNL1        0.0363
      9 C          62.8490   80.5471   12.5077 C.ar    1  UNL1        0.1333
     10 O          62.6493   79.0886   12.2197 O.3     1  UNL1       -0.5055
     11 C          62.5271   81.5697   11.4586 C.ar    1  UNL1        0.0320
     12 C          62.7268   83.0281   11.7466 C.ar    1  UNL1       -0.0231
     13 C          62.4050   84.0508   10.6975 C.3     1  UNL1        0.0261
     14 C          62.6046   85.5092   10.9855 C.3     1  UNL1        0.0050
     15 C          63.1261   85.9451   12.3227 C.3     1  UNL1        0.0044
     16 C          63.3258   87.4037   12.6107 C.3     1  UNL1        0.0027
     17 C          63.0975   88.6312   11.7796 C.3     1  UNL1        0.0028
     18 C          63.4779   89.8259   12.6031 C.3     1  UNL1        0.0313
     19 C          63.9413   89.3365   13.9432 C.3     1  UNL1        0.1106
     20 O          64.4155   90.1938   15.0791 O.3     1  UNL1       -0.3845
     21 H          62.8504   78.4498   12.8751 H       1  UNL1        0.2922
     22 H          64.3785   91.1270   14.8172 H       1  UNL1        0.2103
     23 C          63.4074   91.2583   12.1637 C.3     1  UNL1        0.0287
     24 C          64.6587   92.0820   12.0876 C.ar    1  UNL1       -0.0220
     25 C          65.3778   92.4715   13.3451 C.ar    1  UNL1       -0.0043
     26 C          66.6291   93.2952   13.2691 C.ar    1  UNL1       -0.0002
     27 C          67.1613   93.7293   11.9356 C.ar    1  UNL1        0.0045
     28 C          66.4423   93.3398   10.6781 C.ar    1  UNL1        0.0528
     29 C          65.1910   92.5161   10.7541 C.ar    1  UNL1        0.0002
     30 C          66.9746   93.7740    9.3447 C.2     1  UNL1        0.2427
     31 N          66.3891   94.9717    8.6573 N.am    1  UNL1       -0.3253
     32 O          68.0924   93.0102    8.6985 O.2     1  UNL1       -0.2704
     33 H          65.6555   95.4730    9.0813 H       1  UNL1        0.1453
     34 H          66.7385   95.2567    7.7821 H       1  UNL1        0.1453
@<TRIPOS>BOND
     1     2     1    1
     2     2     3    1
     3     3     4    1
     4     5     4    1
     5     5     6    1
     6     6     7   ar
     7     7     8   ar
     8     8     9   ar
     9     9    10    1
    10     9    11   ar
    11    11    12   ar
    12    12    13    1
    13    13    14    1
    14    15    14    1
    15    15    16    1
    16    16    17    1
    17    17    18    1
    18    18    23    1
    19    23    24    1
    20    24    25   ar
    21    25    26   ar
    22    26    27   ar
    23    27    28   ar
    24    28    30    1
    25    30    31   am
    26    30    32    2
    27    28    29   ar
    28    18    19    1
    29    19    20    1
    30    16     2    1
    31    29    24   ar
    32    19     2    1
    33    15     5    1
    34    12     6   ar
    35    10    21    1
    36    31    33    1
    37    31    34    1
    38    20    22    1
@<TRIPOS>MOLECULE
*****
 34 38 0 0 0
SMALL
GASTEIGER

@<TRIPOS>ATOM
      1 C          62.2361   90.0047    9.7371 C.3     1  UNL1        0.0024
      2 C          62.8935   89.5864   11.0188 C.3     1  UNL1        0.0248
      3 C          63.2157   90.9895   10.5974 C.3     1  UNL1        0.0027
      4 C          64.1242   91.8355   11.4393 C.3     1  UNL1        0.0044
      5 C          64.7105   91.2785   12.7026 C.3     1  UNL1        0.0220
      6 C          65.6190   92.1246   13.5445 C.ar    1  UNL1       -0.0263
      7 C          65.9412   93.5276   13.1231 C.ar    1  UNL1       -0.0015
      8 C          66.8497   94.3737   13.9650 C.ar    1  UNL1        0.0363
      9 C          67.4360   93.8166   15.2283 C.ar    1  UNL1        0.1333
     10 O          68.3445   94.6627   16.0703 O.3     1  UNL1       -0.5055
     11 C          67.1138   92.4136   15.6497 C.ar    1  UNL1        0.0320
     12 C          66.2054   91.5676   14.8078 C.ar    1  UNL1       -0.0231
     13 C          65.8832   90.1644   15.2292 C.3     1  UNL1        0.0261
     14 C          64.9747   89.3184   14.3873 C.3     1  UNL1        0.0050
     15 C          64.3883   89.8754   13.1240 C.3     1  UNL1        0.0044
     16 C          63.4798   89.0293   12.2821 C.3     1  UNL1        0.0027
     17 C          62.9853   87.6223   12.4416 C.3     1  UNL1        0.0028
     18 C          62.0933   87.3097   11.2769 C.3     1  UNL1        0.0313
     19 C          62.0366   88.5236   10.3976 C.3     1  UNL1        0.1106
     20 O          61.2593   88.6520    9.1211 O.3     1  UNL1       -0.3845
     21 H          68.5458   95.5392   15.8070 H       1  UNL1        0.2922
     22 H          60.7903   87.8218    8.9432 H       1  UNL1        0.2103
     23 C          61.3827   86.0111   11.0341 C.3     1  UNL1        0.0287
     24 C          62.1505   84.7226   11.0452 C.ar    1  UNL1       -0.0220
     25 C          63.1171   84.4159    9.9400 C.ar    1  UNL1       -0.0043
     26 C          63.8849   83.1273    9.9511 C.ar    1  UNL1       -0.0002
     27 C          63.6860   82.1454   11.0675 C.ar    1  UNL1        0.0045
     28 C          62.7194   82.4521   12.1727 C.ar    1  UNL1        0.0528
     29 C          61.9516   83.7407   12.1616 C.ar    1  UNL1        0.0002
     30 C          62.5206   81.4701   13.2891 C.2     1  UNL1        0.2427
     31 N          62.4727   81.9492   14.7097 N.am    1  UNL1       -0.3253
     32 O          62.3695   80.0091   12.9848 O.2     1  UNL1       -0.2704
     33 H          62.5719   82.9082   14.9094 H       1  UNL1        0.1453
     34 H          62.3422   81.3048   15.4424 H       1  UNL1        0.1453
@<TRIPOS>BOND
     1     2     1    1
     2     2     3    1
     3     3     4    1
     4     5     4    1
     5     5     6    1
     6     6     7   ar
     7     7     8   ar
     8     8     9   ar
     9     9    10    1
    10     9    11   ar
    11    11    12   ar
    12    12    13    1
    13    13    14    1
    14    15    14    1
    15    15    16    1
    16    16    17    1
    17    17    18    1
    18    18    23    1
    19    23    24    1
    20    24    25   ar
    21    25    26   ar
    22    26    27   ar
    23    27    28   ar
    24    28    30    1
    25    30    31   am
    26    30    32    2
    27    28    29   ar
    28    18    19    1
    29    19    20    1
    30    16     2    1
    31    29    24   ar
    32    19     2    1
    33    15     5    1
    34    12     6   ar
    35    10    21    1
    36    31    33    1
    37    31    34    1
    38    20    22    1
