@<TRIPOS>MOLECULE
*****
 39 42 0 0 0
SMALL
GASTEIGER

@<TRIPOS>ATOM
      1 C          62.1730   86.5930   10.6943 C.3     1  UNL1        0.1812
      2 O          62.9515   86.4913   11.9725 O.3     1  UNL1       -0.3784
      3 H          63.4768   85.6759   11.9671 H       1  UNL1        0.2106
      4 C          61.3946   86.6947    9.4162 C.3     1  UNL1        0.4197
      5 F          60.6161   86.7964    8.1380 F       1  UNL1       -0.1676
      6 F          62.6169   86.3015    8.6405 F       1  UNL1       -0.1676
      7 F          60.1724   87.0879   10.1918 F       1  UNL1       -0.1676
      8 C          62.7595   85.2915   10.2336 C.3     1  UNL1        0.0399
      9 C          64.1373   83.7158   10.5781 C.3     1  UNL1        0.0045
     10 C          62.8214   84.1229   11.1719 C.3     1  UNL1        0.0227
     11 C          61.6391   84.6147   11.5994 C.3     1  UNL1        0.0045
     12 C          62.8833   82.9542   12.1102 C.ar    1  UNL1       -0.0041
     13 C          62.5807   81.5731   11.6091 C.ar    1  UNL1       -0.0030
     14 C          62.6427   80.4045   12.5474 C.ar    1  UNL1       -0.0002
     15 C          63.0072   80.6170   13.9869 C.ar    1  UNL1        0.0013
     16 C          63.3097   81.9980   14.4880 C.ar    1  UNL1        0.0196
     17 C          63.2478   83.1666   13.5497 C.ar    1  UNL1        0.1177
     18 S          63.5504   84.5477   14.0508 S.O2    1  UNL1        0.0568
     19 N          63.8530   85.9288   14.5520 N.3     1  UNL1       -0.2035
     20 O          64.8475   84.5776   13.6778 O.2     1  UNL1       -0.1532
     21 O          62.1355   84.6839   14.5299 O.2     1  UNL1       -0.1532
     22 H          64.8287   86.1545   14.3584 H       1  UNL1        0.1442
     23 H          63.6877   85.9693   15.5577 H       1  UNL1        0.1442
     24 C          61.5866   87.8945   11.1550 C.3     1  UNL1        0.0811
     25 C          62.4736   89.0873   11.3560 C.2     1  UNL1        0.0614
     26 C          62.9306   90.0363   10.2879 C.2     1  UNL1        0.0163
     27 C          63.7988   91.0761   10.9322 C.2     1  UNL1        0.0264
     28 C          64.5271   92.2622   10.3731 C.2     1  UNL1        0.0903
     29 C          65.3350   93.1422   11.2804 C.2     1  UNL1        0.3192
     30 N          65.4146   92.8359   12.7466 N.2     1  UNL1       -0.0585
     31 C          64.6862   91.6498   13.3056 C.3     1  UNL1        0.3085
     32 C          63.8783   90.7699   12.3985 C.2     1  UNL1        0.1121
     33 N          63.0593   89.5407   12.6604 N.2     1  UNL1       -0.2495
     34 N          66.0634   94.3283   10.7213 N.pl3   1  UNL1       -0.1860
     35 C          66.9245   94.1737    9.5028 C.3     1  UNL1        0.2346
     36 C          67.6529   95.3599    8.9438 C.3     1  UNL1        0.1929
     37 O          67.5201   96.7006    9.6032 O.3     1  UNL1       -0.3449
     38 C          66.6590   96.8552   10.8216 C.3     1  UNL1        0.1929
     39 C          65.9307   95.6690   11.3807 C.3     1  UNL1        0.2346
@<TRIPOS>BOND
     1     9    10    1
     2    10    11    1
     3    10     8    1
     4     8     1    1
     5     1     2    1
     6     1    24    1
     7    24    25    1
     8    25    26    2
     9    26    27    1
    10    27    28    2
    11    28    29    1
    12    29    34    1
    13    34    35    1
    14    35    36    1
    15    36    37    1
    16    37    38    1
    17    38    39    1
    18    29    30    2
    19    30    31    1
    20    31    32    1
    21    32    33    2
    22     1     4    1
    23     4     5    1
    24     4     6    1
    25     4     7    1
    26    10    12    1
    27    12    13   ar
    28    13    14   ar
    29    14    15   ar
    30    15    16   ar
    31    16    17   ar
    32    17    18    1
    33    18    19    1
    34    18    20    2
    35    18    21    2
    36    33    25    1
    37    17    12   ar
    38    32    27    1
    39    39    34    1
    40     2     3    1
    41    19    22    1
    42    19    23    1
@<TRIPOS>MOLECULE
*****
 39 42 0 0 0
SMALL
GASTEIGER

@<TRIPOS>ATOM
      1 C          63.7195   86.9035   15.7827 C.3     1  UNL1        0.1812
      2 O          64.2015   87.0358   14.3685 O.3     1  UNL1       -0.3784
      3 H          64.6753   86.2293   14.1116 H       1  UNL1        0.2106
      4 C          63.2376   86.7713   17.1970 C.3     1  UNL1        0.4197
      5 F          62.7556   86.6390   18.6114 F       1  UNL1       -0.1676
      6 F          62.1842   87.8067   16.9349 F       1  UNL1       -0.1676
      7 F          64.2908   85.7360   17.4591 F       1  UNL1       -0.1676
      8 C          64.3263   85.5340   15.8615 C.3     1  UNL1        0.0399
      9 C          62.5305   84.4220   15.6653 C.3     1  UNL1        0.0045
     10 C          63.8463   84.4472   14.9457 C.3     1  UNL1        0.0227
     11 C          65.0744   84.5891   14.4034 C.3     1  UNL1        0.0045
     12 C          63.3664   83.3605   14.0299 C.ar    1  UNL1       -0.0041
     13 C          63.4318   81.9273   14.4679 C.ar    1  UNL1       -0.0030
     14 C          62.9518   80.8406   13.5521 C.ar    1  UNL1       -0.0002
     15 C          62.4065   81.1871   12.1983 C.ar    1  UNL1        0.0013
     16 C          62.3412   82.6202   11.7603 C.ar    1  UNL1        0.0196
     17 C          62.8211   83.7069   12.6762 C.ar    1  UNL1        0.1177
     18 S          62.7558   85.1401   12.2382 S.O2    1  UNL1        0.0568
     19 N          62.6904   86.5733   11.8003 N.3     1  UNL1       -0.2035
     20 O          61.8402   85.5471   13.1430 O.2     1  UNL1       -0.1532
     21 O          63.7727   84.8606   11.1716 O.2     1  UNL1       -0.1532
     22 H          62.0236   87.0773   12.3848 H       1  UNL1        0.1442
     23 H          62.3904   86.6179   10.8264 H       1  UNL1        0.1442
     24 C          63.1127   88.2731   15.7040 C.3     1  UNL1        0.0811
     25 C          63.4658   89.1855   14.5670 C.2     1  UNL1        0.0614
     26 C          64.5632   90.2082   14.5653 C.2     1  UNL1        0.0163
     27 C          64.5591   90.8903   13.2293 C.2     1  UNL1        0.0264
     28 C          65.4148   91.9810   12.6566 C.2     1  UNL1        0.0903
     29 C          65.1705   92.4707   11.2600 C.2     1  UNL1        0.3192
     30 N          64.0706   91.8696   10.4361 N.2     1  UNL1       -0.0585
     31 C          63.2149   90.7789   11.0088 C.3     1  UNL1        0.3085
     32 C          63.4591   90.2892   12.4054 C.2     1  UNL1        0.1121
     33 N          62.7834   89.2356   13.2322 N.2     1  UNL1       -0.2495
     34 N          66.0262   93.5615   10.6873 N.pl3   1  UNL1       -0.1860
     35 C          67.1570   93.2202    9.7625 C.3     1  UNL1        0.2346
     36 C          68.0127   94.3110    9.1898 C.3     1  UNL1        0.1929
     37 O          67.7377   95.7430    9.5419 O.3     1  UNL1       -0.3449
     38 C          66.6070   96.0842   10.4665 C.3     1  UNL1        0.1929
     39 C          65.7513   94.9934   11.0392 C.3     1  UNL1        0.2346
@<TRIPOS>BOND
     1     9    10    1
     2    10    11    1
     3    10     8    1
     4     8     1    1
     5     1     2    1
     6     1    24    1
     7    24    25    1
     8    25    26    2
     9    26    27    1
    10    27    28    2
    11    28    29    1
    12    29    34    1
    13    34    35    1
    14    35    36    1
    15    36    37    1
    16    37    38    1
    17    38    39    1
    18    29    30    2
    19    30    31    1
    20    31    32    1
    21    32    33    2
    22     1     4    1
    23     4     5    1
    24     4     6    1
    25     4     7    1
    26    10    12    1
    27    12    13   ar
    28    13    14   ar
    29    14    15   ar
    30    15    16   ar
    31    16    17   ar
    32    17    18    1
    33    18    19    1
    34    18    20    2
    35    18    21    2
    36    33    25    1
    37    17    12   ar
    38    32    27    1
    39    39    34    1
    40     2     3    1
    41    19    22    1
    42    19    23    1
@<TRIPOS>MOLECULE
*****
 39 42 0 0 0
SMALL
GASTEIGER

@<TRIPOS>ATOM
      1 C          63.6105   86.7648   15.7469 C.3     1  UNL1        0.1812
      2 O          64.1004   86.9650   14.3434 O.3     1  UNL1       -0.3784
      3 H          64.2457   86.1018   13.9254 H       1  UNL1        0.2106
      4 C          63.1206   86.5646   17.1504 C.3     1  UNL1        0.4197
      5 F          62.6307   86.3644   18.5540 F       1  UNL1       -0.1676
      6 F          62.2547   87.7828   17.0220 F       1  UNL1       -0.1676
      7 F          63.9864   85.3465   17.2789 F       1  UNL1       -0.1676
      8 C          63.6756   85.2782   15.5576 C.3     1  UNL1        0.0399
      9 C          65.0326   84.6047   14.0727 C.3     1  UNL1        0.0045
     10 C          63.5392   84.6903   14.1844 C.3     1  UNL1        0.0227
     11 C          62.2202   84.8312   14.4348 C.3     1  UNL1        0.0045
     12 C          63.4028   84.1024   12.8111 C.ar    1  UNL1       -0.0041
     13 C          63.5360   84.9810   11.6026 C.ar    1  UNL1       -0.0030
     14 C          63.3996   84.3931   10.2293 C.ar    1  UNL1       -0.0002
     15 C          63.1300   82.9267   10.0646 C.ar    1  UNL1        0.0013
     16 C          62.9969   82.0482   11.2731 C.ar    1  UNL1        0.0196
     17 C          63.1333   82.6361   12.6464 C.ar    1  UNL1        0.1177
     18 S          63.0001   81.7576   13.8549 S.O2    1  UNL1        0.0568
     19 N          62.8669   80.8791   15.0634 N.3     1  UNL1       -0.2035
     20 O          64.3187   81.5410   14.0470 O.2     1  UNL1       -0.1532
     21 O          61.5076   81.8921   13.7883 O.2     1  UNL1       -0.1532
     22 H          63.7936   80.5937   15.3800 H       1  UNL1        0.1442
     23 H          62.3198   80.0522   14.8241 H       1  UNL1        0.1442
     24 C          63.5454   88.2514   15.9362 C.3     1  UNL1        0.0811
     25 C          63.7994   89.1670   14.7756 C.2     1  UNL1        0.0614
     26 C          64.9312   90.1441   14.6546 C.2     1  UNL1        0.0163
     27 C          64.7976   90.8473   13.3365 C.2     1  UNL1        0.0264
     28 C          65.6248   91.9115   12.6782 C.2     1  UNL1        0.0903
     29 C          65.2376   92.4333   11.3262 C.2     1  UNL1        0.3192
     30 N          64.0233   91.8910   10.6325 N.2     1  UNL1       -0.0585
     31 C          63.1961   90.8268   11.2908 C.3     1  UNL1        0.3085
     32 C          63.5832   90.3050   12.6427 C.2     1  UNL1        0.1121
     33 N          62.9663   89.2665   13.5322 N.2     1  UNL1       -0.2495
     34 N          66.0648   93.4975   10.6680 N.pl3   1  UNL1       -0.1860
     35 C          65.7339   94.9447   10.8827 C.3     1  UNL1        0.2346
     36 C          66.5611   96.0089   10.2245 C.3     1  UNL1        0.1929
     37 O          67.7192   95.6258    9.3515 O.3     1  UNL1       -0.3449
     38 C          68.0500   94.1787    9.1367 C.3     1  UNL1        0.1929
     39 C          67.2228   93.1145    9.7950 C.3     1  UNL1        0.2346
@<TRIPOS>BOND
     1     9    10    1
     2    10    11    1
     3    10     8    1
     4     8     1    1
     5     1     2    1
     6     1    24    1
     7    24    25    1
     8    25    26    2
     9    26    27    1
    10    27    28    2
    11    28    29    1
    12    29    34    1
    13    34    35    1
    14    35    36    1
    15    36    37    1
    16    37    38    1
    17    38    39    1
    18    29    30    2
    19    30    31    1
    20    31    32    1
    21    32    33    2
    22     1     4    1
    23     4     5    1
    24     4     6    1
    25     4     7    1
    26    10    12    1
    27    12    13   ar
    28    13    14   ar
    29    14    15   ar
    30    15    16   ar
    31    16    17   ar
    32    17    18    1
    33    18    19    1
    34    18    20    2
    35    18    21    2
    36    33    25    1
    37    17    12   ar
    38    32    27    1
    39    39    34    1
    40     2     3    1
    41    19    22    1
    42    19    23    1
@<TRIPOS>MOLECULE
*****
 39 42 0 0 0
SMALL
GASTEIGER

@<TRIPOS>ATOM
      1 C          65.0046   91.7114   14.2930 C.3     1  UNL1        0.1812
      2 O          63.6270   91.5702   13.7167 O.3     1  UNL1       -0.3784
      3 H          63.4406   92.3244   13.1359 H       1  UNL1        0.2106
      4 C          66.3823   91.8527   14.8692 C.3     1  UNL1        0.4197
      5 F          67.7600   91.9939   15.4455 F       1  UNL1       -0.1676
      6 F          66.8873   90.8085   13.9179 F       1  UNL1       -0.1676
      7 F          65.8774   92.8968   15.8204 F       1  UNL1       -0.1676
      8 C          65.1860   92.9984   13.5439 C.3     1  UNL1        0.0399
      9 C          65.0742   92.0573   11.6461 C.3     1  UNL1        0.0045
     10 C          66.0156   93.0285   12.2946 C.3     1  UNL1        0.0227
     11 C          66.7655   93.8927   13.0110 C.3     1  UNL1        0.0045
     12 C          66.8452   93.0586   11.0452 C.ar    1  UNL1       -0.0041
     13 C          67.7509   91.9083   10.7185 C.ar    1  UNL1       -0.0030
     14 C          68.5805   91.9384    9.4691 C.ar    1  UNL1       -0.0002
     15 C          68.5043   93.1188    8.5465 C.ar    1  UNL1        0.0013
     16 C          67.5986   94.2689    8.8733 C.ar    1  UNL1        0.0196
     17 C          66.7690   94.2388   10.1226 C.ar    1  UNL1        0.1177
     18 S          65.8633   95.3890   10.4494 S.O2    1  UNL1        0.0568
     19 N          64.9576   96.5392   10.7761 N.3     1  UNL1       -0.2035
     20 O          64.7085   94.8022   10.0692 O.2     1  UNL1       -0.1532
     21 O          67.0448   96.1872   10.9151 O.2     1  UNL1       -0.1532
     22 H          63.9948   96.2882   10.5516 H       1  UNL1        0.1442
     23 H          65.2328   97.3548   10.2289 H       1  UNL1        0.1442
     24 C          64.8233   90.4246   15.0419 C.3     1  UNL1        0.0811
     25 C          64.3363   89.2011   14.3237 C.2     1  UNL1        0.0614
     26 C          64.5235   87.7821   14.7727 C.2     1  UNL1        0.0163
     27 C          63.8796   86.8857   13.7570 C.2     1  UNL1        0.0264
     28 C          63.7504   85.3936   13.6734 C.2     1  UNL1        0.0903
     29 C          63.0361   84.7664   12.5130 C.2     1  UNL1        0.3192
     30 N          62.4509   85.6313   11.4362 N.2     1  UNL1       -0.0585
     31 C          62.5801   87.1234   11.5198 C.3     1  UNL1        0.3085
     32 C          63.2944   87.7506   12.6801 C.2     1  UNL1        0.1121
     33 N          63.5767   89.1816   13.0304 N.2     1  UNL1       -0.2495
     34 N          62.9069   83.2743   12.4294 N.pl3   1  UNL1       -0.1860
     35 C          62.3934   82.4989   13.6063 C.3     1  UNL1        0.2346
     36 C          62.2643   81.0068   13.5227 C.3     1  UNL1        0.1929
     37 O          62.6487   80.2901   12.2622 O.3     1  UNL1       -0.3449
     38 C          63.1622   81.0656   11.0854 C.3     1  UNL1        0.1929
     39 C          63.2913   82.5577   11.1690 C.3     1  UNL1        0.2346
@<TRIPOS>BOND
     1     9    10    1
     2    10    11    1
     3    10     8    1
     4     8     1    1
     5     1     2    1
     6     1    24    1
     7    24    25    1
     8    25    26    2
     9    26    27    1
    10    27    28    2
    11    28    29    1
    12    29    34    1
    13    34    35    1
    14    35    36    1
    15    36    37    1
    16    37    38    1
    17    38    39    1
    18    29    30    2
    19    30    31    1
    20    31    32    1
    21    32    33    2
    22     1     4    1
    23     4     5    1
    24     4     6    1
    25     4     7    1
    26    10    12    1
    27    12    13   ar
    28    13    14   ar
    29    14    15   ar
    30    15    16   ar
    31    16    17   ar
    32    17    18    1
    33    18    19    1
    34    18    20    2
    35    18    21    2
    36    33    25    1
    37    17    12   ar
    38    32    27    1
    39    39    34    1
    40     2     3    1
    41    19    22    1
    42    19    23    1
@<TRIPOS>MOLECULE
*****
 39 42 0 0 0
SMALL
GASTEIGER

@<TRIPOS>ATOM
      1 C          62.1782   86.5611   10.6551 C.3     1  UNL1        0.1812
      2 O          62.9093   86.3679   11.9505 O.3     1  UNL1       -0.3784
      3 H          63.3855   85.5231   11.9301 H       1  UNL1        0.2106
      4 C          61.4470   86.7542    9.3597 C.3     1  UNL1        0.4197
      5 F          60.7159   86.9474    8.0642 F       1  UNL1       -0.1676
      6 F          62.6802   86.3556    8.6042 F       1  UNL1       -0.1676
      7 F          60.2140   87.1528   10.1150 F       1  UNL1       -0.1676
      8 C          62.7007   85.2437   10.1637 C.3     1  UNL1        0.0399
      9 C          64.0939   83.6753   10.4790 C.3     1  UNL1        0.0045
     10 C          62.7884   84.0752   11.1001 C.3     1  UNL1        0.0227
     11 C          61.6126   84.5606   11.5522 C.3     1  UNL1        0.0045
     12 C          62.8761   82.9067   12.0366 C.ar    1  UNL1       -0.0041
     13 C          62.5797   81.5229   11.5391 C.ar    1  UNL1       -0.0030
     14 C          62.6673   80.3545   12.4756 C.ar    1  UNL1       -0.0002
     15 C          63.0514   80.5697   13.9095 C.ar    1  UNL1        0.0013
     16 C          63.3478   81.9534   14.4070 C.ar    1  UNL1        0.0196
     17 C          63.2602   83.1219   13.4705 C.ar    1  UNL1        0.1177
     18 S          63.5566   84.5057   13.9680 S.O2    1  UNL1        0.0568
     19 N          63.8530   85.8893   14.4655 N.3     1  UNL1       -0.2035
     20 O          64.8533   84.5406   13.5942 O.2     1  UNL1       -0.1532
     21 O          62.1414   84.6365   14.4475 O.2     1  UNL1       -0.1532
     22 H          64.8276   86.1191   14.2708 H       1  UNL1        0.1442
     23 H          63.6881   85.9317   15.4712 H       1  UNL1        0.1442
     24 C          61.6556   87.8784   11.1464 C.3     1  UNL1        0.0811
     25 C          62.6119   88.9561   11.5636 C.2     1  UNL1        0.0614
     26 C          63.4902   88.9333   12.7794 C.2     1  UNL1        0.0163
     27 C          64.2790   90.2089   12.8055 C.2     1  UNL1        0.0264
     28 C          65.3025   90.7366   13.7666 C.2     1  UNL1        0.0903
     29 C          65.9354   92.0756   13.5280 C.2     1  UNL1        0.3192
     30 N          65.5446   92.8867   12.3283 N.2     1  UNL1       -0.0585
     31 C          64.5211   92.3590   11.3671 C.3     1  UNL1        0.3085
     32 C          63.8882   91.0201   11.6057 C.2     1  UNL1        0.1121
     33 N          62.8579   90.2458   10.8382 N.2     1  UNL1       -0.2495
     34 N          66.9589   92.6033   14.4892 N.pl3   1  UNL1       -0.1860
     35 C          67.6847   91.6615   15.4038 C.3     1  UNL1        0.2346
     36 C          68.7083   92.1893   16.3650 C.3     1  UNL1        0.1929
     37 O          69.0061   93.6587   16.4115 O.3     1  UNL1       -0.3449
     38 C          68.2803   94.6004   15.4969 C.3     1  UNL1        0.1929
     39 C          67.2568   94.0726   14.5357 C.3     1  UNL1        0.2346
@<TRIPOS>BOND
     1     9    10    1
     2    10    11    1
     3    10     8    1
     4     8     1    1
     5     1     2    1
     6     1    24    1
     7    24    25    1
     8    25    26    2
     9    26    27    1
    10    27    28    2
    11    28    29    1
    12    29    34    1
    13    34    35    1
    14    35    36    1
    15    36    37    1
    16    37    38    1
    17    38    39    1
    18    29    30    2
    19    30    31    1
    20    31    32    1
    21    32    33    2
    22     1     4    1
    23     4     5    1
    24     4     6    1
    25     4     7    1
    26    10    12    1
    27    12    13   ar
    28    13    14   ar
    29    14    15   ar
    30    15    16   ar
    31    16    17   ar
    32    17    18    1
    33    18    19    1
    34    18    20    2
    35    18    21    2
    36    33    25    1
    37    17    12   ar
    38    32    27    1
    39    39    34    1
    40     2     3    1
    41    19    22    1
    42    19    23    1
@<TRIPOS>MOLECULE
*****
 39 42 0 0 0
SMALL
GASTEIGER

@<TRIPOS>ATOM
      1 C          65.4313   91.8010   13.0523 C.3     1  UNL1        0.1812
      2 O          64.7099   91.9252   11.7430 O.3     1  UNL1       -0.3784
      3 H          65.2948   92.3399   11.0897 H       1  UNL1        0.2106
      4 C          66.1527   91.6768   14.3615 C.3     1  UNL1        0.4197
      5 F          66.8741   91.5527   15.6708 F       1  UNL1       -0.1676
      6 F          67.4230   91.3560   13.6311 F       1  UNL1       -0.1676
      7 F          64.8824   91.9977   15.0918 F       1  UNL1       -0.1676
      8 C          66.6457   92.4373   12.4435 C.3     1  UNL1        0.0399
      9 C          66.5507   94.5556   12.5032 C.3     1  UNL1        0.0045
     10 C          66.4903   93.5213   11.4185 C.3     1  UNL1        0.0227
     11 C          66.4535   92.4785   10.5620 C.3     1  UNL1        0.0045
     12 C          66.3349   94.6054   10.3935 C.ar    1  UNL1       -0.0041
     13 C          65.2453   95.6259   10.5404 C.ar    1  UNL1       -0.0030
     14 C          65.0899   96.7099    9.5153 C.ar    1  UNL1       -0.0002
     15 C          66.0241   96.7735    8.3434 C.ar    1  UNL1        0.0013
     16 C          67.1137   95.7531    8.1966 C.ar    1  UNL1        0.0196
     17 C          67.2691   94.6690    9.2216 C.ar    1  UNL1        0.1177
     18 S          68.3586   93.6485    9.0747 S.O2    1  UNL1        0.0568
     19 N          69.4482   92.6281    8.9279 N.3     1  UNL1       -0.2035
     20 O          68.9534   93.8703   10.2662 O.2     1  UNL1       -0.1532
     21 O          67.8266   93.2750    7.7229 O.2     1  UNL1       -0.1532
     22 H          70.0363   92.6363    9.7613 H       1  UNL1        0.1442
     23 H          70.0149   92.8512    8.1097 H       1  UNL1        0.1442
     24 C          64.2170   91.1648   13.6610 C.3     1  UNL1        0.0811
     25 C          63.7942   89.7916   13.2304 C.2     1  UNL1        0.0614
     26 C          64.1113   88.5084   13.9397 C.2     1  UNL1        0.0163
     27 C          63.4932   87.3842   13.1626 C.2     1  UNL1        0.0264
     28 C          63.4766   85.9008   13.3845 C.2     1  UNL1        0.0903
     29 C          62.7609   85.0056   12.4167 C.2     1  UNL1        0.3192
     30 N          62.0618   85.5939   11.2271 N.2     1  UNL1       -0.0585
     31 C          62.0784   87.0773   11.0052 C.3     1  UNL1        0.3085
     32 C          62.7941   87.9724   11.9729 C.2     1  UNL1        0.1121
     33 N          62.9801   89.4603   12.0148 N.2     1  UNL1       -0.2495
     34 N          62.7443   83.5222   12.6386 N.pl3   1  UNL1       -0.1860
     35 C          62.3969   82.9697   13.9892 C.3     1  UNL1        0.2346
     36 C          62.3803   81.4863   14.2111 C.3     1  UNL1        0.1929
     37 O          62.7111   80.5554   13.0823 O.3     1  UNL1       -0.3449
     38 C          63.0584   81.1079   11.7318 C.3     1  UNL1        0.1929
     39 C          63.0750   82.5913   11.5099 C.3     1  UNL1        0.2346
@<TRIPOS>BOND
     1     9    10    1
     2    10    11    1
     3    10     8    1
     4     8     1    1
     5     1     2    1
     6     1    24    1
     7    24    25    1
     8    25    26    2
     9    26    27    1
    10    27    28    2
    11    28    29    1
    12    29    34    1
    13    34    35    1
    14    35    36    1
    15    36    37    1
    16    37    38    1
    17    38    39    1
    18    29    30    2
    19    30    31    1
    20    31    32    1
    21    32    33    2
    22     1     4    1
    23     4     5    1
    24     4     6    1
    25     4     7    1
    26    10    12    1
    27    12    13   ar
    28    13    14   ar
    29    14    15   ar
    30    15    16   ar
    31    16    17   ar
    32    17    18    1
    33    18    19    1
    34    18    20    2
    35    18    21    2
    36    33    25    1
    37    17    12   ar
    38    32    27    1
    39    39    34    1
    40     2     3    1
    41    19    22    1
    42    19    23    1
