@<TRIPOS>MOLECULE
*****
 35 39 0 0 0
SMALL
GASTEIGER

@<TRIPOS>ATOM
      1 C          64.0992   83.8986   14.6526 C.3     1  UNL1        0.0518
      2 C          63.8396   85.2180   13.9879 C.ar    1  UNL1        0.0563
      3 N          64.3827   86.4803   14.5892 N.ar    1  UNL1       -0.2524
      4 C          64.1231   87.7998   13.9246 C.ar    1  UNL1        0.0830
      5 C          63.3204   87.8569   12.6587 C.ar    1  UNL1        0.0686
      6 C          62.7773   86.5945   12.0574 C.ar    1  UNL1        0.0048
      7 C          63.0369   85.2751   12.7221 C.ar    1  UNL1        0.0072
      8 C          63.2280   89.2921   12.2327 C.2     1  UNL1        0.2505
      9 O          62.5151   89.8070   11.0175 O.2     1  UNL1       -0.2699
     10 N          63.9736   90.1221   13.2353 N.am    1  UNL1       -0.2689
     11 C          64.5268   89.1998   14.2809 C.3     1  UNL1        0.1397
     12 C          61.9745   86.6515   10.7916 C.ar    1  UNL1        0.0106
     13 C          62.5174   86.0455    9.5314 C.ar    1  UNL1        0.0017
     14 C          61.7147   86.1024    8.2655 C.ar    1  UNL1        0.0114
     15 C          60.3693   86.7655    8.2598 C.ar    1  UNL1        0.0585
     16 CL         59.5666   86.8224    6.9939 Cl      1  UNL1       -0.0822
     17 C          59.8264   87.3715    9.5200 C.ar    1  UNL1        0.0228
     18 C          60.6291   87.3146   10.7859 C.ar    1  UNL1        0.0585
     19 CL         60.0862   87.9206   12.0460 Cl      1  UNL1       -0.0822
     20 C          62.4938   84.0127   12.1209 C.3     1  UNL1        0.0934
     21 N          63.3948   83.1096   11.3318 N.3     1  UNL1       -0.3174
     22 H          63.6959   83.5875   10.4824 H       1  UNL1        0.1192
     23 H          62.8901   82.2590   11.0826 H       1  UNL1        0.1192
     24 C          64.1373   91.6127   13.1987 C.3     1  UNL1        0.1117
     25 C          65.0141   92.2456   12.1592 C.3     1  UNL1        0.0990
     26 C          64.6823   92.4067   10.7053 C.3     1  UNL1        0.0209
     27 C          65.8397   93.0892   10.0386 C.3     1  UNL1        0.0206
     28 C          66.8869   93.3500   11.0805 C.3     1  UNL1        0.0955
     29 N          66.3766   92.8286   12.3912 N.3     1  UNL1       -0.1592
     30 S          67.1015   92.8810   13.7033 S.O2    1  UNL1        0.0421
     31 O          68.0236   91.7936   13.2372 O.2     1  UNL1       -0.1573
     32 O          66.1793   93.9684   14.1693 O.2     1  UNL1       -0.1573
     33 C          67.8264   92.9334   15.0154 C.3     1  UNL1        0.1459
     34 C          68.1159   92.3440   16.3640 C.3     1  UNL1        0.0270
     35 C          68.7924   93.6137   15.9396 C.3     1  UNL1        0.0270
@<TRIPOS>BOND
     1     1     2    1
     2     2     3   ar
     3     3     4   ar
     4     4     5   ar
     5     5     6   ar
     6     6    12    1
     7    12    13   ar
     8    13    14   ar
     9    14    15   ar
    10    15    16    1
    11    15    17   ar
    12    17    18   ar
    13    18    19    1
    14     6     7   ar
    15     7    20    1
    16    20    21    1
    17     5     8    1
    18     8     9    2
    19     8    10   am
    20    10    24    1
    21    25    24    1
    22    25    26    1
    23    26    27    1
    24    27    28    1
    25    28    29    1
    26    29    30    1
    27    30    31    2
    28    30    32    2
    29    30    33    1
    30    33    34    1
    31    34    35    1
    32    10    11    1
    33     7     2   ar
    34    29    25    1
    35    35    33    1
    36    11     4    1
    37    18    12   ar
    38    21    22    1
    39    21    23    1
@<TRIPOS>MOLECULE
*****
 35 39 0 0 0
SMALL
GASTEIGER

@<TRIPOS>ATOM
      1 C          63.9002   83.7625   14.9008 C.3     1  UNL1        0.0518
      2 C          63.7293   85.0752   14.1955 C.ar    1  UNL1        0.0563
      3 N          64.3076   86.3259   14.7881 N.ar    1  UNL1       -0.2524
      4 C          64.1367   87.6387   14.0828 C.ar    1  UNL1        0.0830
      5 C          63.3874   87.7007   12.7849 C.ar    1  UNL1        0.0686
      6 C          62.8091   86.4501   12.1922 C.ar    1  UNL1        0.0048
      7 C          62.9800   85.1373   12.8976 C.ar    1  UNL1        0.0072
      8 C          63.3796   89.1275   12.3219 C.2     1  UNL1        0.2505
      9 O          62.7397   89.6438   11.0673 O.2     1  UNL1       -0.2699
     10 N          64.1241   89.9472   13.3337 N.am    1  UNL1       -0.2689
     11 C          64.5920   89.0271   14.4221 C.3     1  UNL1        0.1397
     12 C          62.0598   86.5121   10.8942 C.ar    1  UNL1        0.0106
     13 C          62.6411   85.8846    9.6620 C.ar    1  UNL1        0.0017
     14 C          61.8919   85.9465    8.3640 C.ar    1  UNL1        0.0114
     15 C          60.5613   86.6359    8.2982 C.ar    1  UNL1        0.0585
     16 CL         59.8121   86.6979    7.0002 Cl      1  UNL1       -0.0822
     17 C          59.9800   87.2634    9.5304 C.ar    1  UNL1        0.0228
     18 C          60.7292   87.2015   10.8285 C.ar    1  UNL1        0.0585
     19 CL         60.1479   87.8289   12.0607 Cl      1  UNL1       -0.0822
     20 C          62.4016   83.8865   12.3049 C.3     1  UNL1        0.0934
     21 N          63.2849   82.9340   11.5548 N.3     1  UNL1       -0.3174
     22 H          63.6257   83.3838   10.7051 H       1  UNL1        0.1192
     23 H          62.7527   82.0996   11.3078 H       1  UNL1        0.1192
     24 C          64.3593   91.4272   13.2687 C.3     1  UNL1        0.1117
     25 C          65.4636   92.0471   14.0726 C.3     1  UNL1        0.0990
     26 C          65.4895   92.1996   15.5646 C.3     1  UNL1        0.0209
     27 C          66.7777   92.8701   15.9397 C.3     1  UNL1        0.0206
     28 C          67.5482   93.1320   14.6796 C.3     1  UNL1        0.0955
     29 N          66.7359   92.6233   13.5256 N.3     1  UNL1       -0.1592
     30 S          67.1273   92.6808   12.0787 S.O2    1  UNL1        0.0421
     31 O          68.2691   91.7467   12.3505 O.2     1  UNL1       -0.1573
     32 O          65.9856   93.6150   11.8070 O.2     1  UNL1       -0.1573
     33 C          67.5187   92.7383   10.6318 C.3     1  UNL1        0.1459
     34 C          68.0734   92.0705    9.4086 C.3     1  UNL1        0.0270
     35 C          67.6419   93.5058    9.3489 C.3     1  UNL1        0.0270
@<TRIPOS>BOND
     1     1     2    1
     2     2     3   ar
     3     3     4   ar
     4     4     5   ar
     5     5     6   ar
     6     6    12    1
     7    12    13   ar
     8    13    14   ar
     9    14    15   ar
    10    15    16    1
    11    15    17   ar
    12    17    18   ar
    13    18    19    1
    14     6     7   ar
    15     7    20    1
    16    20    21    1
    17     5     8    1
    18     8     9    2
    19     8    10   am
    20    10    24    1
    21    25    24    1
    22    25    26    1
    23    26    27    1
    24    27    28    1
    25    28    29    1
    26    29    30    1
    27    30    31    2
    28    30    32    2
    29    30    33    1
    30    33    34    1
    31    34    35    1
    32    10    11    1
    33     7     2   ar
    34    29    25    1
    35    35    33    1
    36    11     4    1
    37    18    12   ar
    38    21    22    1
    39    21    23    1
@<TRIPOS>MOLECULE
*****
 35 39 0 0 0
SMALL
GASTEIGER

@<TRIPOS>ATOM
      1 C          58.8469   88.4188    7.2423 C.3     1  UNL1        0.0518
      2 C          59.9053   88.5022    8.3020 C.ar    1  UNL1        0.0563
      3 N          60.4068   89.8405    8.7574 N.ar    1  UNL1       -0.2524
      4 C          61.4652   89.9240    9.8170 C.ar    1  UNL1        0.0830
      5 C          62.0220   88.6691   10.4213 C.ar    1  UNL1        0.0686
      6 C          61.5205   87.3308    9.9660 C.ar    1  UNL1        0.0048
      7 C          60.4621   87.2474    8.9063 C.ar    1  UNL1        0.0072
      8 C          63.0507   89.0619   11.4400 C.2     1  UNL1        0.2505
      9 O          63.8585   88.1221   12.2850 O.2     1  UNL1       -0.2699
     10 N          63.1295   90.5596   11.4652 N.am    1  UNL1       -0.2689
     11 C          62.1497   91.0924   10.4622 C.3     1  UNL1        0.1397
     12 C          62.0773   86.0758   10.5703 C.ar    1  UNL1        0.0106
     13 C          61.7555   85.7211   11.9918 C.ar    1  UNL1        0.0017
     14 C          62.3122   84.4662   12.5962 C.ar    1  UNL1        0.0114
     15 C          63.1907   83.5660   11.7790 C.ar    1  UNL1        0.0585
     16 CL         63.7475   82.3111   12.3833 Cl      1  UNL1       -0.0822
     17 C          63.5126   83.9207   10.3575 C.ar    1  UNL1        0.0228
     18 C          62.9558   85.1756    9.7531 C.ar    1  UNL1        0.0585
     19 CL         63.2776   85.5303    8.3316 Cl      1  UNL1       -0.0822
     20 C          59.9605   85.9090    8.4510 C.3     1  UNL1        0.0934
     21 N          60.2494   85.4341    7.0578 N.3     1  UNL1       -0.3174
     22 H          59.7682   86.0338    6.3875 H       1  UNL1        0.1192
     23 H          59.9221   84.4740    6.9511 H       1  UNL1        0.1192
     24 C          64.0302   91.3805   12.3399 C.3     1  UNL1        0.1117
     25 C          64.9946   92.3499   11.7233 C.3     1  UNL1        0.0990
     26 C          64.9764   92.8279   10.3016 C.3     1  UNL1        0.0209
     27 C          66.1170   93.7849   10.1198 C.3     1  UNL1        0.0206
     28 C          66.8402   93.8985   11.4291 C.3     1  UNL1        0.0955
     29 N          66.1464   93.0115   12.4201 N.3     1  UNL1       -0.1592
     30 S          66.5360   92.8199   13.8559 S.O2    1  UNL1        0.0421
     31 O          66.9779   91.4196   13.5490 O.2     1  UNL1       -0.1573
     32 O          66.0942   94.2201   14.1627 O.2     1  UNL1       -0.1573
     33 C          66.9257   92.6283   15.2916 C.3     1  UNL1        0.1459
     34 C          67.9859   92.4402   16.3359 C.3     1  UNL1        0.0270
     35 C          66.5404   92.4844   16.7341 C.3     1  UNL1        0.0270
@<TRIPOS>BOND
     1     1     2    1
     2     2     3   ar
     3     3     4   ar
     4     4     5   ar
     5     5     6   ar
     6     6    12    1
     7    12    13   ar
     8    13    14   ar
     9    14    15   ar
    10    15    16    1
    11    15    17   ar
    12    17    18   ar
    13    18    19    1
    14     6     7   ar
    15     7    20    1
    16    20    21    1
    17     5     8    1
    18     8     9    2
    19     8    10   am
    20    10    24    1
    21    25    24    1
    22    25    26    1
    23    26    27    1
    24    27    28    1
    25    28    29    1
    26    29    30    1
    27    30    31    2
    28    30    32    2
    29    30    33    1
    30    33    34    1
    31    34    35    1
    32    10    11    1
    33     7     2   ar
    34    29    25    1
    35    35    33    1
    36    11     4    1
    37    18    12   ar
    38    21    22    1
    39    21    23    1
@<TRIPOS>MOLECULE
*****
 35 39 0 0 0
SMALL
GASTEIGER

@<TRIPOS>ATOM
      1 C          58.9643   88.2606    7.1335 C.3     1  UNL1        0.0518
      2 C          59.9326   88.2698    8.2791 C.ar    1  UNL1        0.0563
      3 N          60.2748   89.5611    8.9614 N.ar    1  UNL1       -0.2524
      4 C          61.2431   89.5704   10.1069 C.ar    1  UNL1        0.0830
      5 C          61.8692   88.2884   10.5702 C.ar    1  UNL1        0.0686
      6 C          61.5270   86.9972    9.8879 C.ar    1  UNL1        0.0048
      7 C          60.5586   86.9880    8.7423 C.ar    1  UNL1        0.0072
      8 C          62.7822   88.6064   11.7170 C.2     1  UNL1        0.2505
      9 O          63.6114   87.6192   12.4837 O.2     1  UNL1       -0.2699
     10 N          62.7204   90.0848   11.9626 N.am    1  UNL1       -0.2689
     11 C          61.7692   90.6807   10.9675 C.3     1  UNL1        0.1397
     12 C          62.1530   85.7152   10.3511 C.ar    1  UNL1        0.0106
     13 C          61.7952   85.1477   11.6927 C.ar    1  UNL1        0.0017
     14 C          62.4212   83.8657   12.1560 C.ar    1  UNL1        0.0114
     15 C          63.4050   83.1512   11.2776 C.ar    1  UNL1        0.0585
     16 CL         64.0310   81.8692   11.7409 Cl      1  UNL1       -0.0822
     17 C          63.7628   83.7187    9.9360 C.ar    1  UNL1        0.0228
     18 C          63.1368   85.0007    9.4727 C.ar    1  UNL1        0.0585
     19 CL         63.4946   85.5681    8.1311 Cl      1  UNL1       -0.0822
     20 C          60.2164   85.6966    8.0599 C.3     1  UNL1        0.0934
     21 N          60.7875   85.3887    6.7075 N.3     1  UNL1       -0.3174
     22 H          60.4152   86.0472    6.0233 H       1  UNL1        0.1192
     23 H          60.5320   84.4384    6.4389 H       1  UNL1        0.1192
     24 C          63.4770   90.8357   13.0179 C.3     1  UNL1        0.1117
     25 C          63.3640   90.4261   14.4564 C.3     1  UNL1        0.0990
     26 C          62.3436   89.4869   15.0281 C.3     1  UNL1        0.0209
     27 C          62.6005   89.3640   16.5008 C.3     1  UNL1        0.0206
     28 C          63.7796   90.2272   16.8394 C.3     1  UNL1        0.0955
     29 N          64.2515   90.8836   15.5758 N.3     1  UNL1       -0.1592
     30 S          65.4078   91.8312   15.4532 S.O2    1  UNL1        0.0421
     31 O          64.7482   92.7620   16.4272 O.2     1  UNL1       -0.1573
     32 O          66.0673   90.9004   14.4793 O.2     1  UNL1       -0.1573
     33 C          66.5641   92.7787   15.3306 C.3     1  UNL1        0.1459
     34 C          67.2527   93.9019   14.6137 C.3     1  UNL1        0.0270
     35 C          67.8782   93.2967   15.8353 C.3     1  UNL1        0.0270
@<TRIPOS>BOND
     1     1     2    1
     2     2     3   ar
     3     3     4   ar
     4     4     5   ar
     5     5     6   ar
     6     6    12    1
     7    12    13   ar
     8    13    14   ar
     9    14    15   ar
    10    15    16    1
    11    15    17   ar
    12    17    18   ar
    13    18    19    1
    14     6     7   ar
    15     7    20    1
    16    20    21    1
    17     5     8    1
    18     8     9    2
    19     8    10   am
    20    10    24    1
    21    25    24    1
    22    25    26    1
    23    26    27    1
    24    27    28    1
    25    28    29    1
    26    29    30    1
    27    30    31    2
    28    30    32    2
    29    30    33    1
    30    33    34    1
    31    34    35    1
    32    10    11    1
    33     7     2   ar
    34    29    25    1
    35    35    33    1
    36    11     4    1
    37    18    12   ar
    38    21    22    1
    39    21    23    1
@<TRIPOS>MOLECULE
*****
 35 39 0 0 0
SMALL
GASTEIGER

@<TRIPOS>ATOM
      1 C          66.7590   92.3465   16.5259 C.3     1  UNL1        0.0518
      2 C          66.1449   92.2596   15.1600 C.ar    1  UNL1        0.0563
      3 N          65.0806   91.2404   14.8797 N.ar    1  UNL1       -0.2524
      4 C          64.4666   91.1535   13.5139 C.ar    1  UNL1        0.0830
      5 C          64.9168   92.0857   12.4284 C.ar    1  UNL1        0.0686
      6 C          65.9811   93.1049   12.7087 C.ar    1  UNL1        0.0048
      7 C          66.5952   93.1918   14.0746 C.ar    1  UNL1        0.0072
      8 C          64.1344   91.7665   11.1891 C.2     1  UNL1        0.2505
      9 O          64.2632   92.4557    9.8631 O.2     1  UNL1       -0.2699
     10 N          63.2006   90.6369   11.5087 N.am    1  UNL1       -0.2689
     11 C          63.4059   90.2581   12.9455 C.3     1  UNL1        0.1397
     12 C          66.4314   94.0372   11.6233 C.ar    1  UNL1        0.0106
     13 C          65.9818   95.4682   11.6295 C.ar    1  UNL1        0.0017
     14 C          66.4320   96.4005   10.5441 C.ar    1  UNL1        0.0114
     15 C          67.3319   95.9018    9.4526 C.ar    1  UNL1        0.0585
     16 CL         67.7821   96.8341    8.3672 Cl      1  UNL1       -0.0822
     17 C          67.7815   94.4707    9.4464 C.ar    1  UNL1        0.0228
     18 C          67.3313   93.5384   10.5318 C.ar    1  UNL1        0.0585
     19 CL         67.7809   92.1074   10.5256 Cl      1  UNL1       -0.0822
     20 C          67.6595   94.2110   14.3549 C.3     1  UNL1        0.0934
     21 N          68.9399   93.7957   15.0169 N.3     1  UNL1       -0.3174
     22 H          68.7454   93.4857   15.9690 H       1  UNL1        0.1192
     23 H          69.5822   94.5876   15.0417 H       1  UNL1        0.1192
     24 C          62.2316   89.9983   10.5583 C.3     1  UNL1        0.1117
     25 C          60.9133   89.4889   11.0609 C.3     1  UNL1        0.0990
     26 C          59.7671   90.3304   11.5383 C.3     1  UNL1        0.0209
     27 C          58.6552   89.4102   11.9469 C.3     1  UNL1        0.0206
     28 C          59.1142   88.0000   11.7220 C.3     1  UNL1        0.0955
     29 N          60.5099   88.0486   11.1744 N.3     1  UNL1       -0.1592
     30 S          61.3539   86.8649   10.8052 S.O2    1  UNL1        0.0421
     31 O          60.5073   86.6412    9.5873 O.2     1  UNL1       -0.1573
     32 O          62.2004   87.0886   12.0231 O.2     1  UNL1       -0.1573
     33 C          62.1979   85.6811   10.4360 C.3     1  UNL1        0.1459
     34 C          63.0225   84.9376    9.4275 C.3     1  UNL1        0.0270
     35 C          62.8352   84.3744   10.8051 C.3     1  UNL1        0.0270
@<TRIPOS>BOND
     1     1     2    1
     2     2     3   ar
     3     3     4   ar
     4     4     5   ar
     5     5     6   ar
     6     6    12    1
     7    12    13   ar
     8    13    14   ar
     9    14    15   ar
    10    15    16    1
    11    15    17   ar
    12    17    18   ar
    13    18    19    1
    14     6     7   ar
    15     7    20    1
    16    20    21    1
    17     5     8    1
    18     8     9    2
    19     8    10   am
    20    10    24    1
    21    25    24    1
    22    25    26    1
    23    26    27    1
    24    27    28    1
    25    28    29    1
    26    29    30    1
    27    30    31    2
    28    30    32    2
    29    30    33    1
    30    33    34    1
    31    34    35    1
    32    10    11    1
    33     7     2   ar
    34    29    25    1
    35    35    33    1
    36    11     4    1
    37    18    12   ar
    38    21    22    1
    39    21    23    1
@<TRIPOS>MOLECULE
*****
 35 39 0 0 0
SMALL
GASTEIGER

@<TRIPOS>ATOM
      1 C          66.6957   92.6133   16.8649 C.3     1  UNL1        0.0518
      2 C          66.0879   92.3003   15.5297 C.ar    1  UNL1        0.0563
      3 N          65.0676   91.2076   15.4078 N.ar    1  UNL1       -0.2524
      4 C          64.4598   90.8945   14.0727 C.ar    1  UNL1        0.0830
      5 C          64.8725   91.6741   12.8594 C.ar    1  UNL1        0.0686
      6 C          65.8928   92.7667   12.9813 C.ar    1  UNL1        0.0048
      7 C          66.5006   93.0798   14.3165 C.ar    1  UNL1        0.0072
      8 C          64.1060   91.1431   11.6845 C.2     1  UNL1        0.2505
      9 O          64.2080   91.6337   10.2706 O.2     1  UNL1       -0.2699
     10 N          63.2197   90.0353   12.1716 N.am    1  UNL1       -0.2689
     11 C          63.4383   89.8817   13.6476 C.3     1  UNL1        0.1397
     12 C          66.3055   93.5464   11.7681 C.ar    1  UNL1        0.0106
     13 C          65.6804   94.8803   11.4854 C.ar    1  UNL1        0.0017
     14 C          66.0930   95.6600   10.2722 C.ar    1  UNL1        0.0114
     15 C          67.1307   95.1057    9.3418 C.ar    1  UNL1        0.0585
     16 CL         67.5433   95.8855    8.1286 Cl      1  UNL1       -0.0822
     17 C          67.7559   93.7718    9.6244 C.ar    1  UNL1        0.0228
     18 C          67.3432   92.9921   10.8376 C.ar    1  UNL1        0.0585
     19 CL         67.9684   91.6582   11.1203 Cl      1  UNL1       -0.0822
     20 C          67.5210   94.1726   14.4384 C.3     1  UNL1        0.0934
     21 N          68.8228   93.9088   15.1354 N.3     1  UNL1       -0.3174
     22 H          68.6485   93.7269   16.1238 H       1  UNL1        0.1192
     23 H          69.4299   94.7230   15.0414 H       1  UNL1        0.1192
     24 C          62.2797   89.2237   11.3303 C.3     1  UNL1        0.1117
     25 C          62.2927   87.7266   11.4229 C.3     1  UNL1        0.0990
     26 C          63.0540   86.9119   12.4262 C.3     1  UNL1        0.0209
     27 C          62.7785   85.4632   12.1518 C.3     1  UNL1        0.0206
     28 C          61.8469   85.3825   10.9790 C.3     1  UNL1        0.0955
     29 N          61.5466   86.7814   10.5285 N.3     1  UNL1       -0.1592
     30 S          60.6566   87.1673    9.3844 S.O2    1  UNL1        0.0421
     31 O          61.6110   86.5217    8.4241 O.2     1  UNL1       -0.1573
     32 O          59.7022   87.8130   10.3447 O.2     1  UNL1       -0.1573
     33 C          59.7665   87.5533    8.2404 C.3     1  UNL1        0.1459
     34 C          59.2912   88.5768    7.2523 C.3     1  UNL1        0.0270
     35 C          58.7002   87.1981    7.2469 C.3     1  UNL1        0.0270
@<TRIPOS>BOND
     1     1     2    1
     2     2     3   ar
     3     3     4   ar
     4     4     5   ar
     5     5     6   ar
     6     6    12    1
     7    12    13   ar
     8    13    14   ar
     9    14    15   ar
    10    15    16    1
    11    15    17   ar
    12    17    18   ar
    13    18    19    1
    14     6     7   ar
    15     7    20    1
    16    20    21    1
    17     5     8    1
    18     8     9    2
    19     8    10   am
    20    10    24    1
    21    25    24    1
    22    25    26    1
    23    26    27    1
    24    27    28    1
    25    28    29    1
    26    29    30    1
    27    30    31    2
    28    30    32    2
    29    30    33    1
    30    33    34    1
    31    34    35    1
    32    10    11    1
    33     7     2   ar
    34    29    25    1
    35    35    33    1
    36    11     4    1
    37    18    12   ar
    38    21    22    1
    39    21    23    1
@<TRIPOS>MOLECULE
*****
 35 39 0 0 0
SMALL
GASTEIGER

@<TRIPOS>ATOM
      1 C          63.2803   80.5917   11.2131 C.3     1  UNL1        0.0518
      2 C          63.1268   82.0715   11.4052 C.ar    1  UNL1        0.0563
      3 N          62.9907   82.9722   10.2135 N.ar    1  UNL1       -0.2524
      4 C          62.8372   84.4519   10.4054 C.ar    1  UNL1        0.0830
      5 C          62.8198   85.0309   11.7891 C.ar    1  UNL1        0.0686
      6 C          62.9559   84.1302   12.9808 C.ar    1  UNL1        0.0048
      7 C          63.1094   82.6504   12.7887 C.ar    1  UNL1        0.0072
      8 C          62.6554   86.5169   11.6677 C.2     1  UNL1        0.2505
      9 O          62.5872   87.4923   12.8053 O.2     1  UNL1       -0.2699
     10 N          62.5712   86.8563   10.2091 N.am    1  UNL1       -0.2689
     11 C          62.6835   85.5801    9.4289 C.3     1  UNL1        0.1397
     12 C          62.9385   84.7091   14.3645 C.ar    1  UNL1        0.0106
     13 C          61.6468   84.8059   15.1207 C.ar    1  UNL1        0.0017
     14 C          61.6293   85.3848   16.5044 C.ar    1  UNL1        0.0114
     15 C          62.9036   85.8669   17.1318 C.ar    1  UNL1        0.0585
     16 CL         62.8862   86.4458   18.5154 Cl      1  UNL1       -0.0822
     17 C          64.1954   85.7702   16.3755 C.ar    1  UNL1        0.0228
     18 C          64.2129   85.1913   14.9918 C.ar    1  UNL1        0.0585
     19 CL         65.5046   85.0945   14.2355 Cl      1  UNL1       -0.0822
     20 C          63.2455   81.7496   13.9805 C.3     1  UNL1        0.0934
     21 N          62.0200   81.2126   14.6586 N.3     1  UNL1       -0.3174
     22 H          61.5023   81.9816   15.0841 H       1  UNL1        0.1192
     23 H          62.2952   80.5471   15.3809 H       1  UNL1        0.1192
     24 C          62.4040   88.2307    9.6319 C.3     1  UNL1        0.1117
     25 C          61.3876   89.1692   10.2117 C.3     1  UNL1        0.0990
     26 C          59.9032   88.9552   10.2367 C.3     1  UNL1        0.0209
     27 C          59.2753   90.1401   10.9088 C.3     1  UNL1        0.0206
     28 C          60.3716   91.0864   11.2992 C.3     1  UNL1        0.0955
     29 N          61.6772   90.4863   10.8684 N.3     1  UNL1       -0.1592
     30 S          63.0340   91.0963   11.0605 S.O2    1  UNL1        0.0421
     31 O          63.0404   90.6327   12.4871 O.2     1  UNL1       -0.1573
     32 O          63.0275   91.5599    9.6340 O.2     1  UNL1       -0.1573
     33 C          64.3908   91.7063   11.2526 C.3     1  UNL1        0.1459
     34 C          65.6144   92.3589   10.6810 C.3     1  UNL1        0.0270
     35 C          65.5172   92.1102   12.1570 C.3     1  UNL1        0.0270
@<TRIPOS>BOND
     1     1     2    1
     2     2     3   ar
     3     3     4   ar
     4     4     5   ar
     5     5     6   ar
     6     6    12    1
     7    12    13   ar
     8    13    14   ar
     9    14    15   ar
    10    15    16    1
    11    15    17   ar
    12    17    18   ar
    13    18    19    1
    14     6     7   ar
    15     7    20    1
    16    20    21    1
    17     5     8    1
    18     8     9    2
    19     8    10   am
    20    10    24    1
    21    25    24    1
    22    25    26    1
    23    26    27    1
    24    27    28    1
    25    28    29    1
    26    29    30    1
    27    30    31    2
    28    30    32    2
    29    30    33    1
    30    33    34    1
    31    34    35    1
    32    10    11    1
    33     7     2   ar
    34    29    25    1
    35    35    33    1
    36    11     4    1
    37    18    12   ar
    38    21    22    1
    39    21    23    1
