@<TRIPOS>MOLECULE
*****
 24 26 0 0 0
SMALL
GASTEIGER

@<TRIPOS>ATOM
      1 C          61.2022   87.4123   10.9309 C.ar    1  UNL1        0.1388
      2 C          61.9501   88.6555   11.3113 C.ar    1  UNL1        0.0537
      3 C          63.0574   88.5853   12.3208 C.ar    1  UNL1        0.0873
      4 N          63.4167   87.2719   12.9498 N.ar    1  UNL1       -0.2099
      5 C          62.6687   86.0286   12.5694 C.ar    1  UNL1        0.2539
      6 N          61.5614   86.0988   11.5599 N.ar    1  UNL1       -0.1948
      7 N          63.0280   84.7151   13.1984 N.ar    1  UNL1       -0.2008
      8 N          62.7453   83.3572   12.6270 N.ar    1  UNL1       -0.1673
      9 C          63.2755   82.3317   13.5846 C.ar    1  UNL1        0.0806
     10 C          63.2074   80.8435   13.4097 C.3     1  UNL1        0.0540
     11 C          63.8860   83.0558   14.7479 C.ar    1  UNL1        0.0313
     12 C          63.7330   84.5287   14.5092 C.ar    1  UNL1        0.0651
     13 C          64.2025   85.6231   15.4212 C.3     1  UNL1        0.0523
     14 C          63.8054   89.8287   12.7013 C.ar    1  UNL1        0.0209
     15 C          64.4673   89.9244   14.0439 C.ar    1  UNL1        0.0222
     16 C          65.2153   91.1677   14.4244 C.ar    1  UNL1        0.0989
     17 N          65.3013   92.3153   13.4622 N.ar    1  UNL1       -0.2423
     18 C          64.6394   92.2195   12.1196 C.ar    1  UNL1        0.0989
     19 C          63.8914   90.9762   11.7391 C.ar    1  UNL1        0.0222
     20 C          59.1140   86.8219    7.6081 C.3     1  UNL1        0.0950
     21 C          60.2212   86.7517    8.6176 C.2     1  UNL1        0.2277
     22 O          61.4549   85.9507    8.3232 O.2     1  UNL1       -0.2747
     23 N          60.0949   87.4825    9.9214 N.am    1  UNL1       -0.2692
     24 H          59.2853   88.0082   10.1146 H       1  UNL1        0.1563
@<TRIPOS>BOND
     1    20    21    1
     2    21    22    2
     3    21    23   am
     4    23     1    1
     5     1     2   ar
     6     2     3   ar
     7     3    14    1
     8    14    15   ar
     9    15    16   ar
    10    16    17   ar
    11    17    18   ar
    12    18    19   ar
    13     3     4   ar
    14     4     5   ar
    15     5     7    1
    16     7     8   ar
    17     8     9   ar
    18     9    10    1
    19     9    11   ar
    20    11    12   ar
    21    12    13    1
    22     5     6   ar
    23     6     1   ar
    24    19    14   ar
    25    12     7   ar
    26    23    24    1
@<TRIPOS>MOLECULE
*****
 24 26 0 0 0
SMALL
GASTEIGER

@<TRIPOS>ATOM
      1 C          63.4331   88.3259   12.7500 C.ar    1  UNL1        0.1388
      2 C          62.5618   88.5665   11.5530 C.ar    1  UNL1        0.0537
      3 C          61.8202   87.4247   10.9234 C.ar    1  UNL1        0.0873
      4 N          61.9499   86.0423   11.4909 N.ar    1  UNL1       -0.2099
      5 C          62.8212   85.8017   12.6880 C.ar    1  UNL1        0.2539
      6 N          63.5628   86.9435   13.3175 N.ar    1  UNL1       -0.1948
      7 N          62.9509   84.4192   13.2556 N.ar    1  UNL1       -0.2008
      8 N          62.6489   83.1385   12.5354 N.ar    1  UNL1       -0.1673
      9 C          62.9168   82.0026   13.4776 C.ar    1  UNL1        0.0806
     10 C          62.7469   80.5441   13.1711 C.3     1  UNL1        0.0540
     11 C          63.3844   82.5812   14.7801 C.ar    1  UNL1        0.0313
     12 C          63.4055   84.0748   14.6429 C.ar    1  UNL1        0.0651
     13 C          63.8101   85.0522   15.7063 C.3     1  UNL1        0.0523
     14 C          60.9489   87.6653    9.7263 C.ar    1  UNL1        0.0209
     15 C          60.6781   89.0668    9.2654 C.ar    1  UNL1        0.0222
     16 C          59.8068   89.3075    8.0684 C.ar    1  UNL1        0.0989
     17 N          59.2064   88.1466    7.3322 N.ar    1  UNL1       -0.2423
     18 C          59.4772   86.7451    7.7931 C.ar    1  UNL1        0.0989
     19 C          60.3485   86.5045    8.9902 C.ar    1  UNL1        0.0222
     20 C          64.4177   91.2130   15.2887 C.3     1  UNL1        0.0950
     21 C          63.6762   90.0712   14.6592 C.2     1  UNL1        0.2277
     22 O          62.4361   89.5329   15.3092 O.2     1  UNL1       -0.2747
     23 N          64.1746   89.4677   13.3796 N.am    1  UNL1       -0.2692
     24 H          64.9885   89.8210   12.9530 H       1  UNL1        0.1563
@<TRIPOS>BOND
     1    20    21    1
     2    21    22    2
     3    21    23   am
     4    23     1    1
     5     1     2   ar
     6     2     3   ar
     7     3    14    1
     8    14    15   ar
     9    15    16   ar
    10    16    17   ar
    11    17    18   ar
    12    18    19   ar
    13     3     4   ar
    14     4     5   ar
    15     5     7    1
    16     7     8   ar
    17     8     9   ar
    18     9    10    1
    19     9    11   ar
    20    11    12   ar
    21    12    13    1
    22     5     6   ar
    23     6     1   ar
    24    19    14   ar
    25    12     7   ar
    26    23    24    1
@<TRIPOS>MOLECULE
*****
 24 26 0 0 0
SMALL
GASTEIGER

@<TRIPOS>ATOM
      1 C          61.1307   87.2888   10.8145 C.ar    1  UNL1        0.1388
      2 C          61.5174   85.9459   11.3593 C.ar    1  UNL1        0.0537
      3 C          62.6365   85.8330   12.3517 C.ar    1  UNL1        0.0873
      4 N          63.3690   87.0630   12.7992 N.ar    1  UNL1       -0.2099
      5 C          62.9824   88.4060   12.2544 C.ar    1  UNL1        0.2539
      6 N          61.8632   88.5189   11.2621 N.ar    1  UNL1       -0.1948
      7 N          63.7148   89.6362   12.7020 N.ar    1  UNL1       -0.2008
      8 N          64.4308   89.8096   14.0087 N.ar    1  UNL1       -0.1673
      9 C          65.0184   91.1894   14.0357 C.ar    1  UNL1        0.0806
     10 C          65.8184   91.7853   15.1560 C.3     1  UNL1        0.0540
     11 C          64.6656   91.8688   12.7457 C.ar    1  UNL1        0.0313
     12 C          63.8599   90.9089   11.9215 C.ar    1  UNL1        0.0651
     13 C          63.2981   91.1749   10.5564 C.3     1  UNL1        0.0523
     14 C          63.0232   84.4899   12.8965 C.ar    1  UNL1        0.0209
     15 C          62.6190   84.1001   14.2874 C.ar    1  UNL1        0.0222
     16 C          63.0057   82.7571   14.8322 C.ar    1  UNL1        0.0989
     17 N          63.7965   81.8038   13.9861 N.ar    1  UNL1       -0.2423
     18 C          64.2007   82.1936   12.5952 C.ar    1  UNL1        0.0989
     19 C          63.8140   83.5367   12.0504 C.ar    1  UNL1        0.0222
     20 C          59.0156   86.8653    7.4834 C.3     1  UNL1        0.0950
     21 C          60.1348   86.7524    8.4757 C.2     1  UNL1        0.2277
     22 O          61.3772   85.9901    8.1215 O.2     1  UNL1       -0.2747
     23 N          60.0116   87.4017    9.8222 N.am    1  UNL1       -0.2692
     24 H          59.1962   87.9021   10.0547 H       1  UNL1        0.1563
@<TRIPOS>BOND
     1    20    21    1
     2    21    22    2
     3    21    23   am
     4    23     1    1
     5     1     2   ar
     6     2     3   ar
     7     3    14    1
     8    14    15   ar
     9    15    16   ar
    10    16    17   ar
    11    17    18   ar
    12    18    19   ar
    13     3     4   ar
    14     4     5   ar
    15     5     7    1
    16     7     8   ar
    17     8     9   ar
    18     9    10    1
    19     9    11   ar
    20    11    12   ar
    21    12    13    1
    22     5     6   ar
    23     6     1   ar
    24    19    14   ar
    25    12     7   ar
    26    23    24    1
@<TRIPOS>MOLECULE
*****
 24 26 0 0 0
SMALL
GASTEIGER

@<TRIPOS>ATOM
      1 C          61.4835   89.1073   10.2558 C.ar    1  UNL1        0.1388
      2 C          62.2976   90.0911   11.0426 C.ar    1  UNL1        0.0537
      3 C          63.2091   89.6091   12.1321 C.ar    1  UNL1        0.0873
      4 N          63.3064   88.1432   12.4347 N.ar    1  UNL1       -0.2099
      5 C          62.4923   87.1593   11.6479 C.ar    1  UNL1        0.2539
      6 N          61.5808   87.6414   10.5584 N.ar    1  UNL1       -0.1948
      7 N          62.5896   85.6934   11.9505 N.ar    1  UNL1       -0.2008
      8 N          62.4348   85.0598   13.3013 N.ar    1  UNL1       -0.1673
      9 C          62.6083   83.5785   13.1411 C.ar    1  UNL1        0.0806
     10 C          62.5330   82.5582   14.2381 C.3     1  UNL1        0.0540
     11 C          62.8703   83.2966   11.6913 C.ar    1  UNL1        0.0313
     12 C          62.8588   84.6037   10.9555 C.ar    1  UNL1        0.0651
     13 C          63.0779   84.7885    9.4831 C.3     1  UNL1        0.0523
     14 C          64.0233   90.5931   12.9189 C.ar    1  UNL1        0.0209
     15 C          64.7548   91.6959   12.2127 C.ar    1  UNL1        0.0222
     16 C          65.5689   92.6798   12.9994 C.ar    1  UNL1        0.0989
     17 N          65.6515   92.5610   14.4925 N.ar    1  UNL1       -0.2423
     18 C          64.9200   91.4582   15.1987 C.ar    1  UNL1        0.0989
     19 C          64.1059   90.4742   14.4119 C.ar    1  UNL1        0.0222
     20 C          59.1682   89.1138    7.0325 C.3     1  UNL1        0.0950
     21 C          60.0797   88.6318    8.1220 C.2     1  UNL1        0.2277
     22 O          60.4987   87.1921    8.1671 O.2     1  UNL1       -0.2747
     23 N          60.5721   89.5893    9.1663 N.am    1  UNL1       -0.2692
     24 H          60.2970   90.5341    9.1367 H       1  UNL1        0.1563
@<TRIPOS>BOND
     1    20    21    1
     2    21    22    2
     3    21    23   am
     4    23     1    1
     5     1     2   ar
     6     2     3   ar
     7     3    14    1
     8    14    15   ar
     9    15    16   ar
    10    16    17   ar
    11    17    18   ar
    12    18    19   ar
    13     3     4   ar
    14     4     5   ar
    15     5     7    1
    16     7     8   ar
    17     8     9   ar
    18     9    10    1
    19     9    11   ar
    20    11    12   ar
    21    12    13    1
    22     5     6   ar
    23     6     1   ar
    24    19    14   ar
    25    12     7   ar
    26    23    24    1
@<TRIPOS>MOLECULE
*****
 24 26 0 0 0
SMALL
GASTEIGER

@<TRIPOS>ATOM
      1 C          63.1922   85.8812   12.7426 C.ar    1  UNL1        0.1388
      2 C          62.2999   86.0691   11.5516 C.ar    1  UNL1        0.0537
      3 C          61.9983   87.4505   11.0508 C.ar    1  UNL1        0.0873
      4 N          62.5891   88.6440   11.7410 N.ar    1  UNL1       -0.2099
      5 C          63.4814   88.4562   12.9320 C.ar    1  UNL1        0.2539
      6 N          63.7829   87.0748   13.4328 N.ar    1  UNL1       -0.1948
      7 N          64.0722   89.6498   13.6222 N.ar    1  UNL1       -0.2008
      8 N          64.9011   90.7206   12.9770 N.ar    1  UNL1       -0.1673
      9 C          65.2790   91.7147   14.0348 C.ar    1  UNL1        0.0806
     10 C          66.1069   92.9486   13.8297 C.3     1  UNL1        0.0540
     11 C          64.6837   91.2582   15.3338 C.ar    1  UNL1        0.0313
     12 C          63.9378   89.9821   15.0788 C.ar    1  UNL1        0.0651
     13 C          63.1891   89.1792   16.1008 C.3     1  UNL1        0.0523
     14 C          61.1059   87.6383    9.8598 C.ar    1  UNL1        0.0209
     15 C          60.7610   89.0210    9.3917 C.ar    1  UNL1        0.0222
     16 C          59.8687   89.2089    8.2008 C.ar    1  UNL1        0.0989
     17 N          59.3213   88.0140    7.4778 N.ar    1  UNL1       -0.2423
     18 C          59.6662   86.6312    7.9459 C.ar    1  UNL1        0.0989
     19 C          60.5586   86.4434    9.1369 C.ar    1  UNL1        0.0222
     20 C          63.0577   82.5733   14.9311 C.3     1  UNL1        0.0950
     21 C          62.7561   83.9547   14.4303 C.2     1  UNL1        0.2277
     22 O          61.7170   84.7910   15.1165 O.2     1  UNL1       -0.2747
     23 N          63.4937   84.4998   13.2434 N.am    1  UNL1       -0.2692
     24 H          64.1757   83.9510   12.7930 H       1  UNL1        0.1563
@<TRIPOS>BOND
     1    20    21    1
     2    21    22    2
     3    21    23   am
     4    23     1    1
     5     1     2   ar
     6     2     3   ar
     7     3    14    1
     8    14    15   ar
     9    15    16   ar
    10    16    17   ar
    11    17    18   ar
    12    18    19   ar
    13     3     4   ar
    14     4     5   ar
    15     5     7    1
    16     7     8   ar
    17     8     9   ar
    18     9    10    1
    19     9    11   ar
    20    11    12   ar
    21    12    13    1
    22     5     6   ar
    23     6     1   ar
    24    19    14   ar
    25    12     7   ar
    26    23    24    1
@<TRIPOS>MOLECULE
*****
 24 26 0 0 0
SMALL
GASTEIGER

@<TRIPOS>ATOM
      1 C          63.7468   88.8743   13.9195 C.ar    1  UNL1        0.1388
      2 C          64.4897   90.1582   13.6970 C.ar    1  UNL1        0.0537
      3 C          64.3411   90.8954   12.3991 C.ar    1  UNL1        0.0873
      4 N          63.4497   90.3486   11.3238 N.ar    1  UNL1       -0.2099
      5 C          62.7068   89.0647   11.5464 C.ar    1  UNL1        0.2539
      6 N          62.8554   88.3275   12.8442 N.ar    1  UNL1       -0.1948
      7 N          61.8153   88.5179   10.4710 N.ar    1  UNL1       -0.2008
      8 N          62.0567   87.2689    9.6761 N.ar    1  UNL1       -0.1673
      9 C          60.9165   87.1031    8.7156 C.ar    1  UNL1        0.0806
     10 C          60.7514   85.9869    7.7273 C.3     1  UNL1        0.0540
     11 C          59.9704   88.2496    8.9170 C.ar    1  UNL1        0.0313
     12 C          60.5259   89.1239   10.0019 C.ar    1  UNL1        0.0651
     13 C          59.9015   90.3832   10.5257 C.3     1  UNL1        0.0523
     14 C          65.0841   92.1794   12.1765 C.ar    1  UNL1        0.0209
     15 C          65.8159   92.8291   13.3133 C.ar    1  UNL1        0.0222
     16 C          66.5589   94.1130   13.0908 C.ar    1  UNL1        0.0989
     17 N          66.5700   94.7473   11.7315 N.ar    1  UNL1       -0.2423
     18 C          65.8381   94.0975   10.5947 C.ar    1  UNL1        0.0989
     19 C          65.0952   92.8135   10.8173 C.ar    1  UNL1        0.0222
     20 C          63.0958   87.6722   17.6453 C.3     1  UNL1        0.0950
     21 C          62.9472   88.4093   16.3474 C.2     1  UNL1        0.2277
     22 O          61.8505   89.4188   16.1795 O.2     1  UNL1       -0.2747
     23 N          63.8954   88.1371   15.2174 N.am    1  UNL1       -0.2692
     24 H          64.6152   87.4746   15.3276 H       1  UNL1        0.1563
@<TRIPOS>BOND
     1    20    21    1
     2    21    22    2
     3    21    23   am
     4    23     1    1
     5     1     2   ar
     6     2     3   ar
     7     3    14    1
     8    14    15   ar
     9    15    16   ar
    10    16    17   ar
    11    17    18   ar
    12    18    19   ar
    13     3     4   ar
    14     4     5   ar
    15     5     7    1
    16     7     8   ar
    17     8     9   ar
    18     9    10    1
    19     9    11   ar
    20    11    12   ar
    21    12    13    1
    22     5     6   ar
    23     6     1   ar
    24    19    14   ar
    25    12     7   ar
    26    23    24    1
@<TRIPOS>MOLECULE
*****
 24 26 0 0 0
SMALL
GASTEIGER

@<TRIPOS>ATOM
      1 C          65.7581   92.1340   13.4710 C.ar    1  UNL1        0.1388
      2 C          64.5947   91.2453   13.1447 C.ar    1  UNL1        0.0537
      3 C          64.0478   91.2081   11.7484 C.ar    1  UNL1        0.0873
      4 N          64.6643   92.0595   10.6785 N.ar    1  UNL1       -0.2099
      5 C          65.8278   92.9482   11.0048 C.ar    1  UNL1        0.2539
      6 N          66.3747   92.9855   12.4010 N.ar    1  UNL1       -0.1948
      7 N          66.4444   93.7997    9.9348 N.ar    1  UNL1       -0.2008
      8 N          65.8872   95.0862    9.4014 N.ar    1  UNL1       -0.1673
      9 C          66.8249   95.5958    8.3473 C.ar    1  UNL1        0.0806
     10 C          66.6555   96.8557    7.5511 C.3     1  UNL1        0.0540
     11 C          67.9616   94.6242    8.2293 C.ar    1  UNL1        0.0313
     12 C          67.7265   93.5142    9.2104 C.ar    1  UNL1        0.0651
     13 C          68.6171   92.3271    9.4287 C.3     1  UNL1        0.0523
     14 C          62.8842   90.3193   11.4222 C.ar    1  UNL1        0.0209
     15 C          62.9104   88.8732   11.8199 C.ar    1  UNL1        0.0222
     16 C          61.7469   87.9845   11.4937 C.ar    1  UNL1        0.0989
     17 N          60.5572   88.5418   10.7697 N.ar    1  UNL1       -0.2423
     18 C          60.5311   89.9879   10.3719 C.ar    1  UNL1        0.0989
     19 C          61.6946   90.8766   10.6982 C.ar    1  UNL1        0.0222
     20 C          68.3324   92.2983   16.4869 C.3     1  UNL1        0.0950
     21 C          67.7855   92.2610   15.0906 C.2     1  UNL1        0.2277
     22 O          68.7192   92.3135   13.9178 O.2     1  UNL1       -0.2747
     23 N          66.3050   92.1713   14.8672 N.am    1  UNL1       -0.2692
     24 H          65.6922   92.1369   15.6370 H       1  UNL1        0.1563
@<TRIPOS>BOND
     1    20    21    1
     2    21    22    2
     3    21    23   am
     4    23     1    1
     5     1     2   ar
     6     2     3   ar
     7     3    14    1
     8    14    15   ar
     9    15    16   ar
    10    16    17   ar
    11    17    18   ar
    12    18    19   ar
    13     3     4   ar
    14     4     5   ar
    15     5     7    1
    16     7     8   ar
    17     8     9   ar
    18     9    10    1
    19     9    11   ar
    20    11    12   ar
    21    12    13    1
    22     5     6   ar
    23     6     1   ar
    24    19    14   ar
    25    12     7   ar
    26    23    24    1
@<TRIPOS>MOLECULE
*****
 24 26 0 0 0
SMALL
GASTEIGER

@<TRIPOS>ATOM
      1 C          63.8798   86.4201   13.6359 C.ar    1  UNL1        0.1388
      2 C          64.3671   87.6297   14.3771 C.ar    1  UNL1        0.0537
      3 C          63.9640   89.0010   13.9220 C.ar    1  UNL1        0.0873
      4 N          63.0735   89.1627   12.7259 N.ar    1  UNL1       -0.2099
      5 C          62.5861   87.9531   11.9848 C.ar    1  UNL1        0.2539
      6 N          62.9893   86.5818   12.4398 N.ar    1  UNL1       -0.1948
      7 N          61.6956   88.1147   10.7885 N.ar    1  UNL1       -0.2008
      8 N          60.7818   87.0688   10.2219 N.ar    1  UNL1       -0.1673
      9 C          60.0839   87.6583    9.0321 C.ar    1  UNL1        0.0806
     10 C          59.0799   86.9602    8.1636 C.3     1  UNL1        0.0540
     11 C          60.5665   89.0686    8.8635 C.ar    1  UNL1        0.0313
     12 C          61.5625   89.3506    9.9490 C.ar    1  UNL1        0.0651
     13 C          62.2966   90.6419   10.1581 C.3     1  UNL1        0.0523
     14 C          64.4514   90.2106   14.6633 C.ar    1  UNL1        0.0209
     15 C          65.6393   90.9730   14.1557 C.ar    1  UNL1        0.0222
     16 C          66.1267   92.1825   14.8969 C.ar    1  UNL1        0.0989
     17 N          65.4262   92.6298   16.1456 N.ar    1  UNL1       -0.2423
     18 C          64.2383   91.8674   16.6532 C.ar    1  UNL1        0.0989
     19 C          63.7509   90.6578   15.9119 C.ar    1  UNL1        0.0222
     20 C          63.6849   82.7861   15.2189 C.3     1  UNL1        0.0950
     21 C          63.2817   84.1574   14.7639 C.2     1  UNL1        0.2277
     22 O          61.8773   84.6372   14.9820 O.2     1  UNL1       -0.2747
     23 N          64.2829   85.0488   14.0909 N.am    1  UNL1       -0.2692
     24 H          65.2046   84.7338   13.9478 H       1  UNL1        0.1563
@<TRIPOS>BOND
     1    20    21    1
     2    21    22    2
     3    21    23   am
     4    23     1    1
     5     1     2   ar
     6     2     3   ar
     7     3    14    1
     8    14    15   ar
     9    15    16   ar
    10    16    17   ar
    11    17    18   ar
    12    18    19   ar
    13     3     4   ar
    14     4     5   ar
    15     5     7    1
    16     7     8   ar
    17     8     9   ar
    18     9    10    1
    19     9    11   ar
    20    11    12   ar
    21    12    13    1
    22     5     6   ar
    23     6     1   ar
    24    19    14   ar
    25    12     7   ar
    26    23    24    1
@<TRIPOS>MOLECULE
*****
 24 26 0 0 0
SMALL
GASTEIGER

@<TRIPOS>ATOM
      1 C          63.8161   88.5689   13.7612 C.ar    1  UNL1        0.1388
      2 C          64.5311   89.8783   13.6057 C.ar    1  UNL1        0.0537
      3 C          64.3041   90.7162   12.3825 C.ar    1  UNL1        0.0873
      4 N          63.3620   90.2447   11.3147 N.ar    1  UNL1       -0.2099
      5 C          62.6471   88.9353   11.4702 C.ar    1  UNL1        0.2539
      6 N          62.8741   88.0974   12.6934 N.ar    1  UNL1       -0.1948
      7 N          61.7050   88.4637   10.4023 N.ar    1  UNL1       -0.2008
      8 N          61.8743   87.2366    9.5563 N.ar    1  UNL1       -0.1673
      9 C          60.7022   87.1509    8.6242 C.ar    1  UNL1        0.0806
     10 C          60.4654   86.0793    7.6017 C.3     1  UNL1        0.0540
     11 C          59.8085   88.3251    8.8941 C.ar    1  UNL1        0.0313
     12 C          60.4283   89.1364    9.9931 C.ar    1  UNL1        0.0651
     13 C          59.8694   90.3987   10.5797 C.3     1  UNL1        0.0523
     14 C          65.0191   92.0257   12.2270 C.ar    1  UNL1        0.0209
     15 C          65.7524   92.6226   13.3915 C.ar    1  UNL1        0.0222
     16 C          66.4674   93.9320   13.2361 C.ar    1  UNL1        0.0989
     17 N          66.4492   94.6445   11.9162 N.ar    1  UNL1       -0.2423
     18 C          65.7159   94.0476   10.7517 C.ar    1  UNL1        0.0989
     19 C          65.0009   92.7381   10.9072 C.ar    1  UNL1        0.0222
     20 C          64.3163   85.3982   16.0949 C.3     1  UNL1        0.0950
     21 C          64.0893   86.2360   14.8716 C.2     1  UNL1        0.2277
     22 O          63.9084   85.5788   13.5354 O.2     1  UNL1       -0.2747
     23 N          64.0431   87.7310   14.9845 N.am    1  UNL1       -0.2692
     24 H          64.1619   88.1624   15.8615 H       1  UNL1        0.1563
@<TRIPOS>BOND
     1    20    21    1
     2    21    22    2
     3    21    23   am
     4    23     1    1
     5     1     2   ar
     6     2     3   ar
     7     3    14    1
     8    14    15   ar
     9    15    16   ar
    10    16    17   ar
    11    17    18   ar
    12    18    19   ar
    13     3     4   ar
    14     4     5   ar
    15     5     7    1
    16     7     8   ar
    17     8     9   ar
    18     9    10    1
    19     9    11   ar
    20    11    12   ar
    21    12    13    1
    22     5     6   ar
    23     6     1   ar
    24    19    14   ar
    25    12     7   ar
    26    23    24    1
