@<TRIPOS>MOLECULE
*****
 28 30 0 0 0
SMALL
GASTEIGER

@<TRIPOS>ATOM
      1 C          63.2024   86.5956   12.6576 C.ar    1  UNL1        0.1004
      2 C          62.8184   87.8826   11.9895 C.ar    1  UNL1        0.1211
      3 N          63.1897   89.1933   12.6173 N.ar    1  UNL1       -0.2069
      4 C          63.9449   89.2171   13.9131 C.ar    1  UNL1        0.2494
      5 C          64.3288   87.9301   14.5811 C.ar    1  UNL1        0.1568
      6 N          63.9575   86.6194   13.9533 N.ar    1  UNL1       -0.2374
      7 C          63.7042   84.0821   12.2326 C.2     1  UNL1       -0.0053
      8 C          62.8311   85.2849   12.0298 C.2     1  UNL1        0.0177
      9 C          63.3329   82.7714   11.6048 C.3     1  UNL1        0.0939
     10 C          64.1096   82.2560   10.4296 C.3     1  UNL1        0.0262
     11 C          61.0643   80.7061   14.1223 C.3     1  UNL1        0.0946
     12 C          62.2122   81.5014   13.5749 C.2     1  UNL1        0.2232
     13 O          63.3874   81.8221   14.4501 O.2     1  UNL1       -0.2751
     14 N          62.1850   81.9761   12.1522 N.am    1  UNL1       -0.3022
     15 H          61.4137   81.7656   11.5778 H       1  UNL1        0.1497
     16 O          64.3161   90.5279   14.5409 O.3     1  UNL1       -0.4340
     17 C          64.9423   91.6074   13.7087 C.ar    1  UNL1        0.1579
     18 C          64.5519   91.7662   12.2691 C.ar    1  UNL1        0.0415
     19 C          65.1781   92.8457   11.4369 C.ar    1  UNL1        0.0401
     20 C          66.1946   93.7664   12.0443 C.ar    1  UNL1        0.1396
     21 C          66.5849   93.6077   13.4839 C.ar    1  UNL1        0.0514
     22 C          65.9588   92.5281   14.3161 C.ar    1  UNL1        0.0952
     23 CL         66.3491   92.3694   15.7557 Cl      1  UNL1       -0.0790
     24 O          66.8207   94.8460   11.2121 O.3     1  UNL1       -0.4754
     25 C          67.2852   94.5441    9.8181 C.3     1  UNL1        0.2053
     26 C          68.0008   93.2581    9.5281 C.3     1  UNL1        0.0438
     27 C          68.7065   92.3535    8.5619 C.3     1  UNL1        0.0038
     28 C          68.5346   91.9353    9.9921 C.3     1  UNL1        0.0038
@<TRIPOS>BOND
     1    11    12    1
     2    12    13    2
     3    12    14   am
     4    14     9    1
     5     9    10    1
     6     9     7    1
     7     7     8    2
     8     8     1    1
     9     1     2   ar
    10     2     3   ar
    11     3     4   ar
    12     4    16    1
    13    16    17    1
    14    17    18   ar
    15    18    19   ar
    16    19    20   ar
    17    20    24    1
    18    24    25    1
    19    25    26    1
    20    26    27    1
    21    27    28    1
    22    20    21   ar
    23    21    22   ar
    24    22    23    1
    25     4     5   ar
    26     5     6   ar
    27     6     1   ar
    28    22    17   ar
    29    28    26    1
    30    14    15    1
@<TRIPOS>MOLECULE
*****
 28 30 0 0 0
SMALL
GASTEIGER

@<TRIPOS>ATOM
      1 C          63.6346   90.8397   11.9773 C.ar    1  UNL1        0.1004
      2 C          63.5995   89.5823   12.7944 C.ar    1  UNL1        0.1211
      3 N          62.9729   88.3404   12.2332 N.ar    1  UNL1       -0.2069
      4 C          62.3814   88.3558   10.8549 C.ar    1  UNL1        0.2494
      5 C          62.4165   89.6132   10.0378 C.ar    1  UNL1        0.1568
      6 N          63.0431   90.8551   10.5990 N.ar    1  UNL1       -0.2374
      7 C          65.5305   92.6157   11.9438 C.2     1  UNL1       -0.0053
      8 C          64.2612   92.0816   12.5385 C.2     1  UNL1        0.0177
      9 C          66.1571   93.8577   12.5050 C.3     1  UNL1        0.0939
     10 C          66.3909   95.0457   11.6195 C.3     1  UNL1        0.0262
     11 C          68.0226   93.0625   15.9163 C.3     1  UNL1        0.0946
     12 C          67.6298   93.0085   14.4697 C.2     1  UNL1        0.2232
     13 O          68.3167   92.0515   13.5413 O.2     1  UNL1       -0.2751
     14 N          66.5500   93.9116   13.9516 N.am    1  UNL1       -0.3022
     15 H          66.0991   94.5398   14.5610 H       1  UNL1        0.1497
     16 O          61.7547   87.1139   10.2937 O.3     1  UNL1       -0.4340
     17 C          62.3271   85.7682   10.6279 C.ar    1  UNL1        0.1579
     18 C          62.2169   85.2321   12.0245 C.ar    1  UNL1        0.0415
     19 C          62.7893   83.8865   12.3586 C.ar    1  UNL1        0.0401
     20 C          63.4719   83.0770   11.2962 C.ar    1  UNL1        0.1396
     21 C          63.5821   83.6130    9.8996 C.ar    1  UNL1        0.0514
     22 C          63.0097   84.9587    9.5654 C.ar    1  UNL1        0.0952
     23 CL         63.1199   85.4948    8.1689 Cl      1  UNL1       -0.0790
     24 O          64.0442   81.7313   11.6304 O.3     1  UNL1       -0.4754
     25 C          63.9257   81.1911   13.0247 C.3     1  UNL1        0.2053
     26 C          62.5857   80.7787   13.5578 C.3     1  UNL1        0.0438
     27 C          61.2667   81.1379   14.1752 C.3     1  UNL1        0.0038
     28 C          61.5836   79.7053   13.8637 C.3     1  UNL1        0.0038
@<TRIPOS>BOND
     1    11    12    1
     2    12    13    2
     3    12    14   am
     4    14     9    1
     5     9    10    1
     6     9     7    1
     7     7     8    2
     8     8     1    1
     9     1     2   ar
    10     2     3   ar
    11     3     4   ar
    12     4    16    1
    13    16    17    1
    14    17    18   ar
    15    18    19   ar
    16    19    20   ar
    17    20    24    1
    18    24    25    1
    19    25    26    1
    20    26    27    1
    21    27    28    1
    22    20    21   ar
    23    21    22   ar
    24    22    23    1
    25     4     5   ar
    26     5     6   ar
    27     6     1   ar
    28    22    17   ar
    29    28    26    1
    30    14    15    1
@<TRIPOS>MOLECULE
*****
 28 30 0 0 0
SMALL
GASTEIGER

@<TRIPOS>ATOM
      1 C          63.5291   90.9065   11.6365 C.ar    1  UNL1        0.1004
      2 C          63.4889   89.7817   12.6281 C.ar    1  UNL1        0.1211
      3 N          62.8747   88.4674   12.2469 N.ar    1  UNL1       -0.2069
      4 C          62.3007   88.2778   10.8741 C.ar    1  UNL1        0.2494
      5 C          62.3409   89.4026    9.8826 C.ar    1  UNL1        0.1568
      6 N          62.9551   90.7169   10.2638 N.ar    1  UNL1       -0.2374
      7 C          65.5524   92.2698   12.5297 C.2     1  UNL1       -0.0053
      8 C          64.1433   92.2208   12.0177 C.2     1  UNL1        0.0177
      9 C          66.1666   93.5841   12.9109 C.3     1  UNL1        0.0939
     10 C          66.8863   93.7241   14.2195 C.3     1  UNL1        0.0262
     11 C          66.7227   95.9417    9.7673 C.3     1  UNL1        0.0946
     12 C          66.8282   94.7674   10.6947 C.2     1  UNL1        0.2232
     13 O          67.7010   93.6023   10.3331 O.2     1  UNL1       -0.2751
     14 N          66.0610   94.7583   11.9836 N.am    1  UNL1       -0.3022
     15 H          65.4882   95.5231   12.2209 H       1  UNL1        0.1497
     16 O          61.6865   86.9635   10.4929 O.3     1  UNL1       -0.4340
     17 C          62.3622   85.6805   10.8766 C.ar    1  UNL1        0.1579
     18 C          62.3781   85.2409   12.3107 C.ar    1  UNL1        0.0415
     19 C          63.0538   83.9579   12.6944 C.ar    1  UNL1        0.0401
     20 C          63.7136   83.1144   11.6440 C.ar    1  UNL1        0.1396
     21 C          63.6976   83.5539   10.2100 C.ar    1  UNL1        0.0514
     22 C          63.0219   84.8370    9.8262 C.ar    1  UNL1        0.0952
     23 CL         63.0060   85.2765    8.3922 Cl      1  UNL1       -0.0790
     24 O          64.3893   81.8313   12.0278 O.3     1  UNL1       -0.4754
     25 C          64.0570   81.1697   13.3323 C.3     1  UNL1        0.2053
     26 C          62.6366   80.8057   13.6483 C.3     1  UNL1        0.0438
     27 C          61.2719   81.1977   14.1319 C.3     1  UNL1        0.0038
     28 C          61.5410   79.7831   13.7118 C.3     1  UNL1        0.0038
@<TRIPOS>BOND
     1    11    12    1
     2    12    13    2
     3    12    14   am
     4    14     9    1
     5     9    10    1
     6     9     7    1
     7     7     8    2
     8     8     1    1
     9     1     2   ar
    10     2     3   ar
    11     3     4   ar
    12     4    16    1
    13    16    17    1
    14    17    18   ar
    15    18    19   ar
    16    19    20   ar
    17    20    24    1
    18    24    25    1
    19    25    26    1
    20    26    27    1
    21    27    28    1
    22    20    21   ar
    23    21    22   ar
    24    22    23    1
    25     4     5   ar
    26     5     6   ar
    27     6     1   ar
    28    22    17   ar
    29    28    26    1
    30    14    15    1
@<TRIPOS>MOLECULE
*****
 28 30 0 0 0
SMALL
GASTEIGER

@<TRIPOS>ATOM
      1 C          64.6299   91.3878   12.6880 C.ar    1  UNL1        0.1004
      2 C          63.3663   90.5857   12.5883 C.ar    1  UNL1        0.1211
      3 N          63.0076   89.6134   13.6727 N.ar    1  UNL1       -0.2069
      4 C          63.9125   89.4432   14.8569 C.ar    1  UNL1        0.2494
      5 C          65.1760   90.2453   14.9565 C.ar    1  UNL1        0.1568
      6 N          65.5347   91.2176   13.8721 N.ar    1  UNL1       -0.2374
      7 C          65.9840   93.4495   11.8721 C.2     1  UNL1       -0.0053
      8 C          64.9886   92.3601   11.6035 C.2     1  UNL1        0.0177
      9 C          66.3427   94.4218   10.7877 C.3     1  UNL1        0.0939
     10 C          66.0267   95.8789   10.9522 C.3     1  UNL1        0.0262
     11 C          68.7672   92.4096    8.3747 C.3     1  UNL1        0.0946
     12 C          68.0925   92.8944    9.6235 C.2     1  UNL1        0.2232
     13 O          68.4928   92.3365   10.9571 O.2     1  UNL1       -0.2751
     14 N          67.0174   93.9370    9.5388 N.am    1  UNL1       -0.3022
     15 H          66.7547   94.3031    8.6635 H       1  UNL1        0.1497
     16 O          63.5538   88.4710   15.9413 O.3     1  UNL1       -0.4340
     17 C          63.6308   86.9957   15.6815 C.ar    1  UNL1        0.1579
     18 C          64.2985   86.4869   14.4383 C.ar    1  UNL1        0.0415
     19 C          64.3756   85.0116   14.1785 C.ar    1  UNL1        0.0401
     20 C          63.7851   84.0450   15.1618 C.ar    1  UNL1        0.1396
     21 C          63.1174   84.5537   16.4050 C.ar    1  UNL1        0.0514
     22 C          63.0403   86.0291   16.6648 C.ar    1  UNL1        0.0952
     23 CL         62.3727   86.5378   17.9080 Cl      1  UNL1       -0.0790
     24 O          63.8622   82.5697   14.9020 O.3     1  UNL1       -0.4754
     25 C          62.9678   81.9413   13.8748 C.3     1  UNL1        0.2053
     26 C          63.3356   82.0026   12.4219 C.3     1  UNL1        0.0438
     27 C          64.0853   82.6544   11.2980 C.3     1  UNL1        0.0038
     28 C          63.2230   81.4568   11.0293 C.3     1  UNL1        0.0038
@<TRIPOS>BOND
     1    11    12    1
     2    12    13    2
     3    12    14   am
     4    14     9    1
     5     9    10    1
     6     9     7    1
     7     7     8    2
     8     8     1    1
     9     1     2   ar
    10     2     3   ar
    11     3     4   ar
    12     4    16    1
    13    16    17    1
    14    17    18   ar
    15    18    19   ar
    16    19    20   ar
    17    20    24    1
    18    24    25    1
    19    25    26    1
    20    26    27    1
    21    27    28    1
    22    20    21   ar
    23    21    22   ar
    24    22    23    1
    25     4     5   ar
    26     5     6   ar
    27     6     1   ar
    28    22    17   ar
    29    28    26    1
    30    14    15    1
@<TRIPOS>MOLECULE
*****
 28 30 0 0 0
SMALL
GASTEIGER

@<TRIPOS>ATOM
      1 C          62.6349   86.5694   11.9971 C.ar    1  UNL1        0.1004
      2 C          62.0156   87.6708   11.1889 C.ar    1  UNL1        0.1211
      3 N          62.2863   89.1034   11.5418 N.ar    1  UNL1       -0.2069
      4 C          63.1764   89.4345   12.7028 C.ar    1  UNL1        0.2494
      5 C          63.7957   88.3330   13.5110 C.ar    1  UNL1        0.1568
      6 N          63.5250   86.9005   13.1582 N.ar    1  UNL1       -0.2374
      7 C          63.4073   84.0906   11.9033 C.2     1  UNL1       -0.0053
      8 C          62.3641   85.1368   11.6442 C.2     1  UNL1        0.0177
      9 C          63.1365   82.6580   11.5505 C.3     1  UNL1        0.0939
     10 C          63.9937   81.9606   10.5361 C.3     1  UNL1        0.0262
     11 C          61.0910   80.5357   14.2078 C.3     1  UNL1        0.0946
     12 C          62.2188   81.2708   13.5463 C.2     1  UNL1        0.2232
     13 O          63.5568   81.3537   14.2192 O.2     1  UNL1       -0.2751
     14 N          62.0087   81.9229   12.2119 N.am    1  UNL1       -0.3022
     15 H          61.1305   81.8685   11.7703 H       1  UNL1        0.1497
     16 O          63.4471   90.8670   13.0557 O.3     1  UNL1       -0.4340
     17 C          64.5741   91.6025   12.3933 C.ar    1  UNL1        0.1579
     18 C          64.4188   92.1048   10.9884 C.ar    1  UNL1        0.0415
     19 C          65.5459   92.8403   10.3259 C.ar    1  UNL1        0.0401
     20 C          66.8282   93.0735   11.0683 C.ar    1  UNL1        0.1396
     21 C          66.9836   92.5713   12.4732 C.ar    1  UNL1        0.0514
     22 C          65.8565   91.8357   13.1357 C.ar    1  UNL1        0.0952
     23 CL         66.0118   91.3335   14.5405 Cl      1  UNL1       -0.0790
     24 O          67.9553   93.8090   10.4058 O.3     1  UNL1       -0.4754
     25 C          67.8523   94.1939    8.9597 C.3     1  UNL1        0.2053
     26 C          67.2323   95.5044    8.5748 C.3     1  UNL1        0.0438
     27 C          66.0471   96.4234    8.5505 C.3     1  UNL1        0.0038
     28 C          67.3438   96.8553    7.9323 C.3     1  UNL1        0.0038
@<TRIPOS>BOND
     1    11    12    1
     2    12    13    2
     3    12    14   am
     4    14     9    1
     5     9    10    1
     6     9     7    1
     7     7     8    2
     8     8     1    1
     9     1     2   ar
    10     2     3   ar
    11     3     4   ar
    12     4    16    1
    13    16    17    1
    14    17    18   ar
    15    18    19   ar
    16    19    20   ar
    17    20    24    1
    18    24    25    1
    19    25    26    1
    20    26    27    1
    21    27    28    1
    22    20    21   ar
    23    21    22   ar
    24    22    23    1
    25     4     5   ar
    26     5     6   ar
    27     6     1   ar
    28    22    17   ar
    29    28    26    1
    30    14    15    1
@<TRIPOS>MOLECULE
*****
 28 30 0 0 0
SMALL
GASTEIGER

@<TRIPOS>ATOM
      1 C          61.2814   87.1076    9.6514 C.ar    1  UNL1        0.1004
      2 C          60.5707   86.2542    8.6432 C.ar    1  UNL1        0.1211
      3 N          59.5995   86.8772    7.6847 N.ar    1  UNL1       -0.2069
      4 C          59.3390   88.3536    7.7345 C.ar    1  UNL1        0.2494
      5 C          60.0497   89.2069    8.7428 C.ar    1  UNL1        0.1568
      6 N          61.0209   88.5839    9.7013 N.ar    1  UNL1       -0.2374
      7 C          61.9206   85.1805   11.2725 C.2     1  UNL1       -0.0053
      8 C          62.2526   86.4846   10.6099 C.2     1  UNL1        0.0177
      9 C          62.8918   84.5575   12.2310 C.3     1  UNL1        0.0939
     10 C          63.6007   85.4106   13.2409 C.3     1  UNL1        0.0262
     11 C          62.9613   80.7233   13.2524 C.3     1  UNL1        0.0946
     12 C          62.6989   82.1992   13.3039 C.2     1  UNL1        0.2232
     13 O          61.9813   82.7928   14.4797 O.2     1  UNL1       -0.2751
     14 N          63.1541   83.0816   12.1795 N.am    1  UNL1       -0.3022
     15 H          63.6251   82.6919   11.4077 H       1  UNL1        0.1497
     16 O          58.3678   88.9766    6.7761 O.3     1  UNL1       -0.4340
     17 C          58.8114   90.0938    5.8790 C.ar    1  UNL1        0.1579
     18 C          60.2740   90.3363    5.6502 C.ar    1  UNL1        0.0415
     19 C          60.7176   91.4536    4.7531 C.ar    1  UNL1        0.0401
     20 C          59.6988   92.3284    4.0847 C.ar    1  UNL1        0.1396
     21 C          58.2363   92.0860    4.3135 C.ar    1  UNL1        0.0514
     22 C          57.7926   90.9686    5.2106 C.ar    1  UNL1        0.0952
     23 CL         56.3302   90.7262    5.4394 Cl      1  UNL1       -0.0790
     24 O          60.1425   93.4457    3.1876 O.3     1  UNL1       -0.4754
     25 C          60.8887   93.1406    1.9226 C.3     1  UNL1        0.2053
     26 C          62.3560   92.8334    1.9729 C.3     1  UNL1        0.0438
     27 C          63.7680   93.1737    1.5985 C.3     1  UNL1        0.0038
     28 C          63.4854   91.9609    2.4346 C.3     1  UNL1        0.0038
@<TRIPOS>BOND
     1    11    12    1
     2    12    13    2
     3    12    14   am
     4    14     9    1
     5     9    10    1
     6     9     7    1
     7     7     8    2
     8     8     1    1
     9     1     2   ar
    10     2     3   ar
    11     3     4   ar
    12     4    16    1
    13    16    17    1
    14    17    18   ar
    15    18    19   ar
    16    19    20   ar
    17    20    24    1
    18    24    25    1
    19    25    26    1
    20    26    27    1
    21    27    28    1
    22    20    21   ar
    23    21    22   ar
    24    22    23    1
    25     4     5   ar
    26     5     6   ar
    27     6     1   ar
    28    22    17   ar
    29    28    26    1
    30    14    15    1
@<TRIPOS>MOLECULE
*****
 28 30 0 0 0
SMALL
GASTEIGER

@<TRIPOS>ATOM
      1 C          62.2741   86.0840   10.7640 C.ar    1  UNL1        0.1004
      2 C          61.7187   86.8533    9.6023 C.ar    1  UNL1        0.1211
      3 N          61.6893   88.3525    9.6408 N.ar    1  UNL1       -0.2069
      4 C          62.2153   89.0824   10.8410 C.ar    1  UNL1        0.2494
      5 C          62.7707   88.3131   12.0027 C.ar    1  UNL1        0.1568
      6 N          62.8001   86.8139   11.9642 N.ar    1  UNL1       -0.2374
      7 C          63.0218   83.8209   11.7981 C.2     1  UNL1       -0.0053
      8 C          62.3035   84.5848   10.7255 C.2     1  UNL1        0.0177
      9 C          63.0512   82.3217   11.7596 C.3     1  UNL1        0.0939
     10 C          64.2512   81.6090   11.2101 C.3     1  UNL1        0.0262
     11 C          60.5183   80.5627   14.2576 C.3     1  UNL1        0.0946
     12 C          61.6888   81.3492   13.7466 C.2     1  UNL1        0.2232
     13 O          62.6677   81.9496   14.7116 O.2     1  UNL1       -0.2751
     14 N          61.8806   81.5352   12.2706 N.am    1  UNL1       -0.3022
     15 H          61.2381   81.1412   11.6372 H       1  UNL1        0.1497
     16 O          62.1859   90.5816   10.8794 O.3     1  UNL1       -0.4340
     17 C          63.3930   91.3439   11.3398 C.ar    1  UNL1        0.1579
     18 C          64.1878   92.1537   10.3586 C.ar    1  UNL1        0.0415
     19 C          65.3948   92.9159   10.8189 C.ar    1  UNL1        0.0401
     20 C          65.8072   92.8684   12.2604 C.ar    1  UNL1        0.1396
     21 C          65.0124   92.0587   13.2415 C.ar    1  UNL1        0.0514
     22 C          63.8053   91.2964   12.7812 C.ar    1  UNL1        0.0952
     23 CL         63.0105   90.4866   13.7623 Cl      1  UNL1       -0.0790
     24 O          67.0143   93.6307   12.7207 O.3     1  UNL1       -0.4754
     25 C          67.0888   94.1372   14.1306 C.3     1  UNL1        0.2053
     26 C          67.7052   93.2867   15.2014 C.3     1  UNL1        0.0438
     27 C          67.5553   92.3682   16.3777 C.3     1  UNL1        0.0038
     28 C          68.9226   92.7320   15.8797 C.3     1  UNL1        0.0038
@<TRIPOS>BOND
     1    11    12    1
     2    12    13    2
     3    12    14   am
     4    14     9    1
     5     9    10    1
     6     9     7    1
     7     7     8    2
     8     8     1    1
     9     1     2   ar
    10     2     3   ar
    11     3     4   ar
    12     4    16    1
    13    16    17    1
    14    17    18   ar
    15    18    19   ar
    16    19    20   ar
    17    20    24    1
    18    24    25    1
    19    25    26    1
    20    26    27    1
    21    27    28    1
    22    20    21   ar
    23    21    22   ar
    24    22    23    1
    25     4     5   ar
    26     5     6   ar
    27     6     1   ar
    28    22    17   ar
    29    28    26    1
    30    14    15    1
@<TRIPOS>MOLECULE
*****
 28 30 0 0 0
SMALL
GASTEIGER

@<TRIPOS>ATOM
      1 C          59.7547   92.1480    3.9809 C.ar    1  UNL1        0.1004
      2 C          60.7736   91.2471    4.6135 C.ar    1  UNL1        0.1211
      3 N          60.3535   90.2578    5.6598 N.ar    1  UNL1       -0.2069
      4 C          58.9144   90.1693    6.0735 C.ar    1  UNL1        0.2494
      5 C          57.8955   91.0702    5.4409 C.ar    1  UNL1        0.1568
      6 N          58.3156   92.0595    4.3947 N.ar    1  UNL1       -0.2374
      7 C          61.4658   92.9448    2.1957 C.2     1  UNL1       -0.0053
      8 C          60.1748   93.1374    2.9346 C.2     1  UNL1        0.0177
      9 C          61.8860   93.9341    1.1494 C.3     1  UNL1        0.0939
     10 C          61.5224   93.7056   -0.2879 C.3     1  UNL1        0.0262
     11 C          64.9432   96.2862    2.0822 C.3     1  UNL1        0.0946
     12 C          64.1596   95.0684    1.6913 C.2     1  UNL1        0.2232
     13 O          64.8661   93.7672    1.4513 O.2     1  UNL1       -0.2751
     14 N          62.6696   95.1519    1.5404 N.am    1  UNL1       -0.3022
     15 H          62.2059   96.0060    1.6979 H       1  UNL1        0.1497
     16 O          58.4943   89.1800    7.1198 O.3     1  UNL1       -0.4340
     17 C          59.5081   88.2592    7.7314 C.ar    1  UNL1        0.1579
     18 C          59.6966   86.8776    7.1784 C.ar    1  UNL1        0.0415
     19 C          60.7104   85.9567    7.7900 C.ar    1  UNL1        0.0401
     20 C          61.5359   86.4174    8.9547 C.ar    1  UNL1        0.1396
     21 C          61.3475   87.7990    9.5077 C.ar    1  UNL1        0.0514
     22 C          60.3336   88.7199    8.8960 C.ar    1  UNL1        0.0952
     23 CL         60.1452   90.1014    9.4490 Cl      1  UNL1       -0.0790
     24 O          62.5498   85.4965    9.5663 O.3     1  UNL1       -0.4754
     25 C          62.3571   84.9922   10.9657 C.3     1  UNL1        0.2053
     26 C          63.1738   83.8378   11.4660 C.3     1  UNL1        0.0438
     27 C          64.2299   82.7977   11.2366 C.3     1  UNL1        0.0038
     28 C          63.5321   82.8783   12.5619 C.3     1  UNL1        0.0038
@<TRIPOS>BOND
     1    11    12    1
     2    12    13    2
     3    12    14   am
     4    14     9    1
     5     9    10    1
     6     9     7    1
     7     7     8    2
     8     8     1    1
     9     1     2   ar
    10     2     3   ar
    11     3     4   ar
    12     4    16    1
    13    16    17    1
    14    17    18   ar
    15    18    19   ar
    16    19    20   ar
    17    20    24    1
    18    24    25    1
    19    25    26    1
    20    26    27    1
    21    27    28    1
    22    20    21   ar
    23    21    22   ar
    24    22    23    1
    25     4     5   ar
    26     5     6   ar
    27     6     1   ar
    28    22    17   ar
    29    28    26    1
    30    14    15    1
@<TRIPOS>MOLECULE
*****
 28 30 0 0 0
SMALL
GASTEIGER

@<TRIPOS>ATOM
      1 C          62.7384   86.3637   11.4924 C.ar    1  UNL1        0.1004
      2 C          63.4858   86.7200   12.7431 C.ar    1  UNL1        0.1211
      3 N          63.5142   88.1417   13.2206 N.ar    1  UNL1       -0.2069
      4 C          62.7951   89.2071   12.4473 C.ar    1  UNL1        0.2494
      5 C          62.0477   88.8507   11.1966 C.ar    1  UNL1        0.1568
      6 N          62.0193   87.4290   10.7191 N.ar    1  UNL1       -0.2374
      7 C          63.1174   83.8324   11.9383 C.2     1  UNL1       -0.0053
      8 C          62.7101   84.9420   11.0149 C.2     1  UNL1        0.0177
      9 C          63.0891   82.4107   11.4608 C.3     1  UNL1        0.0939
     10 C          63.9961   81.9750   10.3483 C.3     1  UNL1        0.0262
     11 C          61.5098   79.9045   14.1017 C.3     1  UNL1        0.0946
     12 C          62.4451   80.8904   13.4668 C.2     1  UNL1        0.2232
     13 O          63.6716   81.3420   14.2028 O.2     1  UNL1       -0.2751
     14 N          62.1539   81.4248   12.0958 N.am    1  UNL1       -0.3022
     15 H          61.3489   81.1284   11.6127 H       1  UNL1        0.1497
     16 O          62.8234   90.6288   12.9248 O.3     1  UNL1       -0.4340
     17 C          63.9285   91.5445   12.4888 C.ar    1  UNL1        0.1579
     18 C          64.9408   92.0260   13.4855 C.ar    1  UNL1        0.0415
     19 C          66.0459   92.9417   13.0494 C.ar    1  UNL1        0.0401
     20 C          66.1387   93.3760   11.6167 C.ar    1  UNL1        0.1396
     21 C          65.1264   92.8946   10.6200 C.ar    1  UNL1        0.0514
     22 C          64.0213   91.9788   11.0560 C.ar    1  UNL1        0.0952
     23 CL         63.0090   91.4974   10.0593 Cl      1  UNL1       -0.0790
     24 O          67.2438   94.2918   11.1807 O.3     1  UNL1       -0.4754
     25 C          67.7367   94.2513    9.7646 C.3     1  UNL1        0.2053
     26 C          68.2347   92.9627    9.1804 C.3     1  UNL1        0.0438
     27 C          68.3405   91.4674    9.2336 C.3     1  UNL1        0.0038
     28 C          68.9915   92.2260    8.1153 C.3     1  UNL1        0.0038
@<TRIPOS>BOND
     1    11    12    1
     2    12    13    2
     3    12    14   am
     4    14     9    1
     5     9    10    1
     6     9     7    1
     7     7     8    2
     8     8     1    1
     9     1     2   ar
    10     2     3   ar
    11     3     4   ar
    12     4    16    1
    13    16    17    1
    14    17    18   ar
    15    18    19   ar
    16    19    20   ar
    17    20    24    1
    18    24    25    1
    19    25    26    1
    20    26    27    1
    21    27    28    1
    22    20    21   ar
    23    21    22   ar
    24    22    23    1
    25     4     5   ar
    26     5     6   ar
    27     6     1   ar
    28    22    17   ar
    29    28    26    1
    30    14    15    1
