@<TRIPOS>MOLECULE
*****
 14 15 0 0 0
SMALL
GASTEIGER

@<TRIPOS>ATOM
      1 N          63.5312   85.5381   14.4147 N.pl3   1  UNL1       -0.3267
      2 C          63.1846   84.1042   14.1436 C.ar    1  UNL1        0.2236
      3 O          63.1413   83.0005   15.1585 O.2     1  UNL1       -0.3387
      4 N          62.7504   81.7362   14.4521 N.ar    1  UNL1       -0.0738
      5 C          62.5521   82.0586   13.0007 C.ar    1  UNL1        0.1451
      6 C          62.8204   83.5221   12.8100 C.ar    1  UNL1        0.0737
      7 H          63.7577   85.8255   15.3287 H       1  UNL1        0.1452
      8 H          63.5322   86.1920   13.6787 H       1  UNL1        0.1452
      9 C          62.7389   84.2718   11.5133 C.ar    1  UNL1        0.0059
     10 C          61.8794   85.4965   11.4078 C.ar    1  UNL1        0.0002
     11 C          61.7979   86.2462   10.1111 C.ar    1  UNL1        0.0000
     12 C          62.5759   85.7710    8.9199 C.ar    1  UNL1        0.0000
     13 C          63.4355   84.5463    9.0254 C.ar    1  UNL1        0.0000
     14 C          63.5169   83.7967   10.3221 C.ar    1  UNL1        0.0002
@<TRIPOS>BOND
     1     1     2    1
     2     2     3   ar
     3     3     4   ar
     4     4     5   ar
     5     5     6   ar
     6     6     9    1
     7     9    10   ar
     8    10    11   ar
     9    11    12   ar
    10    12    13   ar
    11    13    14   ar
    12     6     2   ar
    13    14     9   ar
    14     1     7    1
    15     1     8    1
@<TRIPOS>MOLECULE
*****
 14 15 0 0 0
SMALL
GASTEIGER

@<TRIPOS>ATOM
      1 N          65.3429   92.7623   16.7376 N.pl3   1  UNL1       -0.3267
      2 C          66.5276   92.6756   15.8217 C.ar    1  UNL1        0.2236
      3 O          67.8783   93.2800   16.0677 O.2     1  UNL1       -0.3387
      4 N          68.7552   92.9472   14.8970 N.ar    1  UNL1       -0.0738
      5 C          67.9464   92.1372   13.9276 C.ar    1  UNL1        0.1451
      6 C          66.5697   91.9693   14.4991 C.ar    1  UNL1        0.0737
      7 H          65.4138   93.2512   17.5892 H       1  UNL1        0.1452
      8 H          64.4944   92.3304   16.4872 H       1  UNL1        0.1452
      9 C          65.4345   91.2257   13.8601 C.ar    1  UNL1        0.0059
     10 C          64.9481   89.9398   14.4600 C.ar    1  UNL1        0.0002
     11 C          63.8129   89.1962   13.8210 C.ar    1  UNL1        0.0000
     12 C          63.1641   89.7386   12.5821 C.ar    1  UNL1        0.0000
     13 C          63.6504   91.0244   11.9822 C.ar    1  UNL1        0.0000
     14 C          64.7856   91.7680   12.6212 C.ar    1  UNL1        0.0002
@<TRIPOS>BOND
     1     1     2    1
     2     2     3   ar
     3     3     4   ar
     4     4     5   ar
     5     5     6   ar
     6     6     9    1
     7     9    10   ar
     8    10    11   ar
     9    11    12   ar
    10    12    13   ar
    11    13    14   ar
    12     6     2   ar
    13    14     9   ar
    14     1     7    1
    15     1     8    1
@<TRIPOS>MOLECULE
*****
 14 15 0 0 0
SMALL
GASTEIGER

@<TRIPOS>ATOM
      1 N          59.5799   85.8274    7.4383 N.pl3   1  UNL1       -0.3267
      2 C          60.0311   87.0618    8.1612 C.ar    1  UNL1        0.2236
      3 O          59.4762   88.4433    7.9779 O.2     1  UNL1       -0.3387
      4 N          60.2185   89.3669    8.8977 N.ar    1  UNL1       -0.0738
      5 C          61.2322   88.5561    9.6495 C.ar    1  UNL1        0.1451
      6 C          61.1163   87.1315    9.1943 C.ar    1  UNL1        0.0737
      7 H          58.8556   85.8831    6.7738 H       1  UNL1        0.1452
      8 H          60.0080   84.9615    7.6284 H       1  UNL1        0.1452
      9 C          61.9410   85.9790    9.6860 C.ar    1  UNL1        0.0059
     10 C          61.8285   85.5312   11.1131 C.ar    1  UNL1        0.0002
     11 C          62.6531   84.3787   11.6047 C.ar    1  UNL1        0.0000
     12 C          63.5903   83.6740   10.6692 C.ar    1  UNL1        0.0000
     13 C          63.7028   84.1219    9.2421 C.ar    1  UNL1        0.0000
     14 C          62.8781   85.2743    8.7505 C.ar    1  UNL1        0.0002
@<TRIPOS>BOND
     1     1     2    1
     2     2     3   ar
     3     3     4   ar
     4     4     5   ar
     5     5     6   ar
     6     6     9    1
     7     9    10   ar
     8    10    11   ar
     9    11    12   ar
    10    12    13   ar
    11    13    14   ar
    12     6     2   ar
    13    14     9   ar
    14     1     7    1
    15     1     8    1
@<TRIPOS>MOLECULE
*****
 14 15 0 0 0
SMALL
GASTEIGER

@<TRIPOS>ATOM
      1 N          64.5197   84.8050   15.2008 N.pl3   1  UNL1       -0.3267
      2 C          63.8217   85.3870   14.0075 C.ar    1  UNL1        0.2236
      3 O          63.7968   86.8361   13.6206 O.2     1  UNL1       -0.3387
      4 N          62.9857   86.9669   12.3656 N.ar    1  UNL1       -0.0738
      5 C          62.5093   85.5987   11.9768 C.ar    1  UNL1        0.1451
      6 C          63.0260   84.6223   12.9916 C.ar    1  UNL1        0.0737
      7 H          65.0195   85.3916   15.8133 H       1  UNL1        0.1452
      8 H          64.4780   83.8363   15.3714 H       1  UNL1        0.1452
      9 C          62.7886   83.1412   12.9906 C.ar    1  UNL1        0.0059
     10 C          62.1567   82.4820   14.1805 C.ar    1  UNL1        0.0002
     11 C          61.9193   81.0010   14.1795 C.ar    1  UNL1        0.0000
     12 C          62.3140   80.1790   12.9884 C.ar    1  UNL1        0.0000
     13 C          62.9459   80.8381   11.7984 C.ar    1  UNL1        0.0000
     14 C          63.1833   82.3192   11.7995 C.ar    1  UNL1        0.0002
@<TRIPOS>BOND
     1     1     2    1
     2     2     3   ar
     3     3     4   ar
     4     4     5   ar
     5     5     6   ar
     6     6     9    1
     7     9    10   ar
     8    10    11   ar
     9    11    12   ar
    10    12    13   ar
    11    13    14   ar
    12     6     2   ar
    13    14     9   ar
    14     1     7    1
    15     1     8    1
@<TRIPOS>MOLECULE
*****
 14 15 0 0 0
SMALL
GASTEIGER

@<TRIPOS>ATOM
      1 N          62.7267   81.0073   12.1011 N.pl3   1  UNL1       -0.3267
      2 C          63.1923   82.0234   13.1015 C.ar    1  UNL1        0.2236
      3 O          63.5818   81.7467   14.5233 O.2     1  UNL1       -0.3387
      4 N          63.9805   83.0469   15.1563 N.ar    1  UNL1       -0.0738
      5 C          63.8373   84.1272   14.1255 C.ar    1  UNL1        0.1451
      6 C          63.3502   83.4947   12.8556 C.ar    1  UNL1        0.0737
      7 H          62.6553   80.0598   12.3587 H       1  UNL1        0.1452
      8 H          62.4925   81.2879   11.1870 H       1  UNL1        0.1452
      9 C          63.0702   84.2082   11.5662 C.ar    1  UNL1        0.0059
     10 C          62.1435   85.3875   11.5475 C.ar    1  UNL1        0.0002
     11 C          61.8635   86.1009   10.2581 C.ar    1  UNL1        0.0000
     12 C          62.5102   85.6351    8.9874 C.ar    1  UNL1        0.0000
     13 C          63.4370   84.4558    9.0061 C.ar    1  UNL1        0.0000
     14 C          63.7169   83.7424   10.2955 C.ar    1  UNL1        0.0002
@<TRIPOS>BOND
     1     1     2    1
     2     2     3   ar
     3     3     4   ar
     4     4     5   ar
     5     5     6   ar
     6     6     9    1
     7     9    10   ar
     8    10    11   ar
     9    11    12   ar
    10    12    13   ar
    11    13    14   ar
    12     6     2   ar
    13    14     9   ar
    14     1     7    1
    15     1     8    1
@<TRIPOS>MOLECULE
*****
 14 15 0 0 0
SMALL
GASTEIGER

@<TRIPOS>ATOM
      1 N          65.2770   95.3833   10.4435 N.pl3   1  UNL1       -0.3267
      2 C          66.4097   94.4198   10.2474 C.ar    1  UNL1        0.2236
      3 O          67.7673   94.7539    9.7039 O.2     1  UNL1       -0.3387
      4 N          68.5804   93.4936    9.6809 N.ar    1  UNL1       -0.0738
      5 C          67.7254   92.3806   10.2103 C.ar    1  UNL1        0.1451
      6 C          66.3838   92.9531   10.5604 C.ar    1  UNL1        0.0737
      7 H          65.3912   96.3321   10.2070 H       1  UNL1        0.1452
      8 H          64.4192   95.0669   10.8088 H       1  UNL1        0.1452
      9 C          65.2206   92.1923   11.1245 C.ar    1  UNL1        0.0059
     10 C          65.1839   91.8525   12.5850 C.ar    1  UNL1        0.0002
     11 C          64.0207   91.0917   13.1491 C.ar    1  UNL1        0.0000
     12 C          62.8942   90.6708   12.2526 C.ar    1  UNL1        0.0000
     13 C          62.9308   91.0106   10.7921 C.ar    1  UNL1        0.0000
     14 C          64.0940   91.7713   10.2280 C.ar    1  UNL1        0.0002
@<TRIPOS>BOND
     1     1     2    1
     2     2     3   ar
     3     3     4   ar
     4     4     5   ar
     5     5     6   ar
     6     6     9    1
     7     9    10   ar
     8    10    11   ar
     9    11    12   ar
    10    12    13   ar
    11    13    14   ar
    12     6     2   ar
    13    14     9   ar
    14     1     7    1
    15     1     8    1
@<TRIPOS>MOLECULE
*****
 14 15 0 0 0
SMALL
GASTEIGER

@<TRIPOS>ATOM
      1 N          65.9013   84.6040   14.4438 N.pl3   1  UNL1       -0.3267
      2 C          64.4793   84.6765   14.9158 C.ar    1  UNL1        0.2236
      3 O          63.9872   85.4226   16.1204 O.2     1  UNL1       -0.3387
      4 N          62.5035   85.2228   16.2152 N.ar    1  UNL1       -0.0738
      5 C          62.0788   84.3531   15.0693 C.ar    1  UNL1        0.1451
      6 C          63.2999   84.0155   14.2662 C.ar    1  UNL1        0.0737
      7 H          66.6093   85.0746   14.9403 H       1  UNL1        0.1452
      8 H          66.1265   84.0859   13.6376 H       1  UNL1        0.1452
      9 C          63.3353   83.1659   13.0304 C.ar    1  UNL1        0.0059
     10 C          63.8745   83.7285   11.7487 C.ar    1  UNL1        0.0002
     11 C          63.9099   82.8790   10.5130 C.ar    1  UNL1        0.0000
     12 C          63.4061   81.4669   10.5590 C.ar    1  UNL1        0.0000
     13 C          62.8670   80.9043   11.8407 C.ar    1  UNL1        0.0000
     14 C          62.8316   81.7538   13.0764 C.ar    1  UNL1        0.0002
@<TRIPOS>BOND
     1     1     2    1
     2     2     3   ar
     3     3     4   ar
     4     4     5   ar
     5     5     6   ar
     6     6     9    1
     7     9    10   ar
     8    10    11   ar
     9    11    12   ar
    10    12    13   ar
    11    13    14   ar
    12     6     2   ar
    13    14     9   ar
    14     1     7    1
    15     1     8    1
@<TRIPOS>MOLECULE
*****
 14 15 0 0 0
SMALL
GASTEIGER

@<TRIPOS>ATOM
      1 N          63.8916   91.3804   11.1766 N.pl3   1  UNL1       -0.3267
      2 C          64.6541   91.8815   12.3672 C.ar    1  UNL1        0.2236
      3 O          64.2839   91.6677   13.8050 O.2     1  UNL1       -0.3387
      4 N          65.3217   92.3384   14.6555 N.ar    1  UNL1       -0.0738
      5 C          66.3331   92.9667   13.7433 C.ar    1  UNL1        0.1451
      6 C          65.9206   92.6843   12.3290 C.ar    1  UNL1        0.0737
      7 H          63.0665   90.8588   11.3044 H       1  UNL1        0.1452
      8 H          64.2163   91.5731   10.2674 H       1  UNL1        0.1452
      9 C          66.6470   93.1270   11.0936 C.ar    1  UNL1        0.0059
     10 C          67.6186   92.2019   10.4227 C.ar    1  UNL1        0.0002
     11 C          68.3450   92.6447    9.1873 C.ar    1  UNL1        0.0000
     12 C          68.0997   94.0126    8.6227 C.ar    1  UNL1        0.0000
     13 C          67.1281   94.9377    9.2935 C.ar    1  UNL1        0.0000
     14 C          66.4017   94.4949   10.5290 C.ar    1  UNL1        0.0002
@<TRIPOS>BOND
     1     1     2    1
     2     2     3   ar
     3     3     4   ar
     4     4     5   ar
     5     5     6   ar
     6     6     9    1
     7     9    10   ar
     8    10    11   ar
     9    11    12   ar
    10    12    13   ar
    11    13    14   ar
    12     6     2   ar
    13    14     9   ar
    14     1     7    1
    15     1     8    1
@<TRIPOS>MOLECULE
*****
 14 15 0 0 0
SMALL
GASTEIGER

@<TRIPOS>ATOM
      1 N          63.0622   87.8988   12.2814 N.pl3   1  UNL1       -0.3267
      2 C          62.0995   87.5772   11.1771 C.ar    1  UNL1        0.2236
      3 O          61.1506   88.5398   10.5265 O.2     1  UNL1       -0.3387
      4 N          60.3812   87.7941    9.4767 N.ar    1  UNL1       -0.0738
      5 C          60.8546   86.3708    9.4784 C.ar    1  UNL1        0.1451
      6 C          61.9165   86.2367   10.5293 C.ar    1  UNL1        0.0737
      7 H          63.1091   88.8133   12.6429 H       1  UNL1        0.1452
      8 H          63.6472   87.1953   12.6449 H       1  UNL1        0.1452
      9 C          62.6642   84.9823   10.8723 C.ar    1  UNL1        0.0059
     10 C          62.6083   84.4335   12.2671 C.ar    1  UNL1        0.0002
     11 C          63.3560   83.1792   12.6100 C.ar    1  UNL1        0.0000
     12 C          64.1595   82.4737   11.5580 C.ar    1  UNL1        0.0000
     13 C          64.2153   83.0225   10.1632 C.ar    1  UNL1        0.0000
     14 C          63.4677   84.2768    9.8203 C.ar    1  UNL1        0.0002
@<TRIPOS>BOND
     1     1     2    1
     2     2     3   ar
     3     3     4   ar
     4     4     5   ar
     5     5     6   ar
     6     6     9    1
     7     9    10   ar
     8    10    11   ar
     9    11    12   ar
    10    12    13   ar
    11    13    14   ar
    12     6     2   ar
    13    14     9   ar
    14     1     7    1
    15     1     8    1
