@<TRIPOS>MOLECULE
*****
 38 43 0 0 0
SMALL
GASTEIGER

@<TRIPOS>ATOM
      1 N          61.3661   92.6472    2.4348 N.3     1  UNL1       -0.2723
      2 C          62.2360   93.8364    2.1534 C.3     1  UNL1        0.0729
      3 C          61.7675   94.9010    1.2063 C.3     1  UNL1        0.0301
      4 C          60.4291   94.7765    0.5405 C.3     1  UNL1        0.0917
      5 C          59.5592   93.5873    0.8219 C.3     1  UNL1        0.0301
      6 C          60.0277   92.5227    1.7690 C.3     1  UNL1        0.0729
      7 C          61.1851   96.0159    0.1633 C.2     1  UNL1        0.2291
      8 O          62.5425   96.4083    0.6671 O.2     1  UNL1       -0.2745
      9 N          60.3456   96.7940   -0.8061 N.am    1  UNL1       -0.2839
     10 C          59.0707   96.0355   -1.0280 C.ar    1  UNL1        0.0467
     11 C          57.8694   96.3192   -1.8804 C.ar    1  UNL1        0.0144
     12 C          56.7198   95.3559   -1.9005 C.ar    1  UNL1        0.0012
     13 C          56.7713   94.1090   -1.0683 C.ar    1  UNL1       -0.0002
     14 C          57.9726   93.8253   -0.2159 C.ar    1  UNL1       -0.0026
     15 C          59.1223   94.7886   -0.1957 C.ar    1  UNL1       -0.0010
     16 H          60.5886   97.6519   -1.2234 H       1  UNL1        0.1549
     17 C          55.5185   95.6395   -2.7528 C.2     1  UNL1        0.0001
     18 C          55.5861   95.4326   -4.2370 C.2     1  UNL1        0.0027
     19 C          56.9004   94.9401   -4.7662 C.ar    1  UNL1       -0.0004
     20 C          57.8999   94.7532   -3.6634 C.ar    1  UNL1       -0.0002
     21 C          59.2826   94.2652   -3.9792 C.ar    1  UNL1       -0.0000
     22 C          59.6659   93.9640   -5.3978 C.ar    1  UNL1       -0.0002
     23 C          58.6664   94.1509   -6.5006 C.ar    1  UNL1       -0.0007
     24 C          57.2837   94.6389   -6.1848 C.ar    1  UNL1        0.0212
     25 C          56.4473   94.7558   -7.4244 C.3     1  UNL1        0.2320
     26 O          55.0211   95.2027   -7.5518 O.3     1  UNL1       -0.4706
     27 C          54.0790   95.6432   -6.4708 C.ar    1  UNL1        0.1412
     28 C          52.7361   96.0093   -7.0299 C.ar    1  UNL1        0.0665
     29 C          51.6446   96.4777   -6.1137 C.ar    1  UNL1        0.1432
     30 F          50.3017   96.8438   -6.6728 F       1  UNL1       -0.2041
     31 C          51.8961   96.5799   -4.6385 C.ar    1  UNL1        0.0298
     32 C          53.2390   96.2139   -4.0795 C.ar    1  UNL1        0.0053
     33 C          54.3304   95.7455   -4.9955 C.ar    1  UNL1        0.0341
     34 C          61.8346   91.5826    3.3819 C.3     1  UNL1        0.0780
     35 C          60.8774   90.9824    4.3686 C.3     1  UNL1        0.0590
     36 O          59.6428   93.2527    4.6358 O.co2   1  UNL1       -0.5491
     37 C          59.6825   91.7653    4.8259 C.2     1  UNL1        0.0517
     38 O          58.5272   91.0609    5.4733 O.co2   1  UNL1       -0.5491
@<TRIPOS>UNITY_ATOM_ATTR
36 1
charge -1
@<TRIPOS>BOND
     1    36    37   ar
     2    37    38   ar
     3    37    35    1
     4    35    34    1
     5    34     1    1
     6     1     2    1
     7     2     3    1
     8     3     4    1
     9     4     5    1
    10     5     6    1
    11     4     7    1
    12     7     8    2
    13     7     9   am
    14     9    10    1
    15    10    11   ar
    16    11    12   ar
    17    12    17    1
    18    17    18    2
    19    18    19    1
    20    19    20   ar
    21    20    21   ar
    22    21    22   ar
    23    22    23   ar
    24    23    24   ar
    25    24    25    1
    26    25    26    1
    27    26    27    1
    28    27    28   ar
    29    28    29   ar
    30    29    30    1
    31    29    31   ar
    32    31    32   ar
    33    32    33   ar
    34    12    13   ar
    35    13    14   ar
    36    14    15   ar
    37     6     1    1
    38    15    10   ar
    39    15     4    1
    40    33    18    1
    41    24    19   ar
    42    33    27   ar
    43     9    16    1
@<TRIPOS>MOLECULE
*****
 38 43 0 0 0
SMALL
GASTEIGER

@<TRIPOS>ATOM
      1 N          62.8321   79.3152   10.7210 N.3     1  UNL1       -0.2723
      2 C          62.0315   78.9701   11.9417 C.3     1  UNL1        0.0729
      3 C          61.8298   79.9928   13.0202 C.3     1  UNL1        0.0301
      4 C          62.4287   81.3607   12.8781 C.3     1  UNL1        0.0917
      5 C          63.2293   81.7059   11.6574 C.3     1  UNL1        0.0301
      6 C          63.4309   80.6831   10.5789 C.3     1  UNL1        0.0729
      7 C          61.6565   81.1618   14.1485 C.2     1  UNL1        0.2291
      8 O          60.9504   79.9051   14.5636 O.2     1  UNL1       -0.2745
      9 N          61.7143   82.4402   14.9312 N.am    1  UNL1       -0.2839
     10 C          62.5222   83.4292   14.1444 C.ar    1  UNL1        0.0467
     11 C          62.9130   84.8510   14.4195 C.ar    1  UNL1        0.0144
     12 C          63.7452   85.6057   13.4256 C.ar    1  UNL1        0.0012
     13 C          64.1867   84.9387   12.1567 C.ar    1  UNL1       -0.0002
     14 C          63.7960   83.5168   11.8816 C.ar    1  UNL1       -0.0026
     15 C          62.9638   82.7620   12.8755 C.ar    1  UNL1       -0.0010
     16 H          61.2955   82.6017   15.8074 H       1  UNL1        0.1549
     17 C          64.1360   87.0276   13.7006 C.2     1  UNL1        0.0001
     18 C          63.5922   88.1337   12.8456 C.2     1  UNL1        0.0027
     19 C          62.6669   87.7097   11.7438 C.ar    1  UNL1       -0.0004
     20 C          62.4759   86.2220   11.7307 C.ar    1  UNL1       -0.0002
     21 C          61.5844   85.5894   10.7035 C.ar    1  UNL1       -0.0000
     22 C          60.8840   86.4445    9.6895 C.ar    1  UNL1       -0.0002
     23 C          61.0751   87.9321    9.7026 C.ar    1  UNL1       -0.0007
     24 C          61.9665   88.5648   10.7297 C.ar    1  UNL1        0.0212
     25 C          62.0185   90.0550   10.5671 C.3     1  UNL1        0.2320
     26 O          62.7837   91.0583   11.3782 O.3     1  UNL1       -0.4706
     27 C          63.6859   90.8190   12.5525 C.ar    1  UNL1        0.1412
     28 C          64.2568   92.1037   13.0756 C.ar    1  UNL1        0.0665
     29 C          65.1876   92.0868   14.2519 C.ar    1  UNL1        0.1432
     30 F          65.7585   93.3715   14.7750 F       1  UNL1       -0.2041
     31 C          65.5474   90.7853   14.9049 C.ar    1  UNL1        0.0298
     32 C          64.9765   89.5006   14.3817 C.ar    1  UNL1        0.0053
     33 C          64.0458   89.5175   13.2056 C.ar    1  UNL1        0.0341
     34 C          63.0338   78.2924    9.6425 C.3     1  UNL1        0.0780
     35 C          63.9074   77.0993    9.8941 C.3     1  UNL1        0.0590
     36 O          64.8494   75.0124    8.6663 O.co2   1  UNL1       -0.5491
     37 C          64.7022   76.5015    8.7713 C.2     1  UNL1        0.0517
     38 O          65.3499   77.3928    7.7534 O.co2   1  UNL1       -0.5491
@<TRIPOS>UNITY_ATOM_ATTR
36 1
charge -1
@<TRIPOS>BOND
     1    36    37   ar
     2    37    38   ar
     3    37    35    1
     4    35    34    1
     5    34     1    1
     6     1     2    1
     7     2     3    1
     8     3     4    1
     9     4     5    1
    10     5     6    1
    11     4     7    1
    12     7     8    2
    13     7     9   am
    14     9    10    1
    15    10    11   ar
    16    11    12   ar
    17    12    17    1
    18    17    18    2
    19    18    19    1
    20    19    20   ar
    21    20    21   ar
    22    21    22   ar
    23    22    23   ar
    24    23    24   ar
    25    24    25    1
    26    25    26    1
    27    26    27    1
    28    27    28   ar
    29    28    29   ar
    30    29    30    1
    31    29    31   ar
    32    31    32   ar
    33    32    33   ar
    34    12    13   ar
    35    13    14   ar
    36    14    15   ar
    37     6     1    1
    38    15    10   ar
    39    15     4    1
    40    33    18    1
    41    24    19   ar
    42    33    27   ar
    43     9    16    1
@<TRIPOS>MOLECULE
*****
 38 43 0 0 0
SMALL
GASTEIGER

@<TRIPOS>ATOM
      1 N          60.3172   80.0962   14.1825 N.3     1  UNL1       -0.2723
      2 C          61.3442   79.5277   13.2487 C.3     1  UNL1        0.0729
      3 C          62.4797   80.3838   12.7715 C.3     1  UNL1        0.0301
      4 C          62.5881   81.8085   13.2280 C.3     1  UNL1        0.0917
      5 C          61.5611   82.3772   14.1618 C.3     1  UNL1        0.0301
      6 C          60.4256   81.5210   14.6390 C.3     1  UNL1        0.0729
      7 C          63.6846   81.3807   12.2981 C.2     1  UNL1        0.2291
      8 O          63.8381   80.0216   11.6822 O.2     1  UNL1       -0.2745
      9 N          64.6006   82.5506   12.0922 N.am    1  UNL1       -0.2839
     10 C          64.0703   83.7014   12.8949 C.ar    1  UNL1        0.0467
     11 C          64.5592   85.1077   13.0773 C.ar    1  UNL1        0.0144
     12 C          63.8043   86.0553   13.9617 C.ar    1  UNL1        0.0012
     13 C          62.5606   85.5968   14.6636 C.ar    1  UNL1       -0.0002
     14 C          62.0716   84.1905   14.4812 C.ar    1  UNL1       -0.0026
     15 C          62.8264   83.2428   13.5969 C.ar    1  UNL1       -0.0010
     16 H          65.4081   82.5612   11.5292 H       1  UNL1        0.1549
     17 C          64.2932   87.4617   14.1442 C.2     1  UNL1        0.0001
     18 C          63.9047   88.5245   13.1596 C.2     1  UNL1        0.0027
     19 C          63.0254   88.0755   12.0304 C.ar    1  UNL1       -0.0004
     20 C          62.7114   86.6120   12.1289 C.ar    1  UNL1       -0.0002
     21 C          61.8430   85.9600   11.0941 C.ar    1  UNL1       -0.0000
     22 C          61.2887   86.7714    9.9608 C.ar    1  UNL1       -0.0002
     23 C          61.6027   88.2348    9.8623 C.ar    1  UNL1       -0.0007
     24 C          62.4710   88.8869   10.8971 C.ar    1  UNL1        0.0212
     25 C          62.6591   90.3477   10.6132 C.3     1  UNL1        0.2320
     26 O          63.4480   91.3580   11.3923 O.3     1  UNL1       -0.4706
     27 C          64.2436   91.1568   12.6479 C.ar    1  UNL1        0.1412
     28 C          64.8829   92.4354   13.1023 C.ar    1  UNL1        0.0665
     29 C          65.7255   92.4530   14.3432 C.ar    1  UNL1        0.1432
     30 F          66.3648   93.7316   14.7976 F       1  UNL1       -0.2041
     31 C          65.9288   91.1921   15.1297 C.ar    1  UNL1        0.0298
     32 C          65.2895   89.9135   14.6753 C.ar    1  UNL1        0.0053
     33 C          64.4469   89.8958   13.4345 C.ar    1  UNL1        0.0341
     34 C          59.1817   79.2401   14.6597 C.3     1  UNL1        0.0780
     35 C          57.9023   79.8768   15.1154 C.3     1  UNL1        0.0590
     36 O          57.5151   78.2286   17.0860 O.co2   1  UNL1       -0.5491
     37 C          57.3748   79.5987   16.4917 C.2     1  UNL1        0.0517
     38 O          56.7068   80.6906   17.2738 O.co2   1  UNL1       -0.5491
@<TRIPOS>UNITY_ATOM_ATTR
36 1
charge -1
@<TRIPOS>BOND
     1    36    37   ar
     2    37    38   ar
     3    37    35    1
     4    35    34    1
     5    34     1    1
     6     1     2    1
     7     2     3    1
     8     3     4    1
     9     4     5    1
    10     5     6    1
    11     4     7    1
    12     7     8    2
    13     7     9   am
    14     9    10    1
    15    10    11   ar
    16    11    12   ar
    17    12    17    1
    18    17    18    2
    19    18    19    1
    20    19    20   ar
    21    20    21   ar
    22    21    22   ar
    23    22    23   ar
    24    23    24   ar
    25    24    25    1
    26    25    26    1
    27    26    27    1
    28    27    28   ar
    29    28    29   ar
    30    29    30    1
    31    29    31   ar
    32    31    32   ar
    33    32    33   ar
    34    12    13   ar
    35    13    14   ar
    36    14    15   ar
    37     6     1    1
    38    15    10   ar
    39    15     4    1
    40    33    18    1
    41    24    19   ar
    42    33    27   ar
    43     9    16    1
@<TRIPOS>MOLECULE
*****
 38 43 0 0 0
SMALL
GASTEIGER

@<TRIPOS>ATOM
      1 N          63.8486   91.1725   13.1503 N.3     1  UNL1       -0.2723
      2 C          62.6881   91.6030   12.3028 C.3     1  UNL1        0.0729
      3 C          61.9264   90.5882   11.5029 C.3     1  UNL1        0.0301
      4 C          62.3251   89.1429   11.5504 C.3     1  UNL1        0.0917
      5 C          63.4855   88.7124   12.3978 C.3     1  UNL1        0.0301
      6 C          64.2472   89.7273   13.1978 C.3     1  UNL1        0.0729
      7 C          61.1491   89.4225   10.6622 C.2     1  UNL1        0.2291
      8 O          60.5284   90.7661   10.4180 O.2     1  UNL1       -0.2745
      9 N          60.7028   88.1227   10.0611 N.am    1  UNL1       -0.2839
     10 C          61.6029   87.0398   10.5778 C.ar    1  UNL1        0.0467
     11 C          61.6391   85.5610   10.3290 C.ar    1  UNL1        0.0144
     12 C          62.6779   84.7128   11.0008 C.ar    1  UNL1        0.0012
     13 C          63.6806   85.3432   11.9212 C.ar    1  UNL1       -0.0002
     14 C          63.6444   86.8220   12.1700 C.ar    1  UNL1       -0.0026
     15 C          62.6055   87.6703   11.4982 C.ar    1  UNL1       -0.0010
     16 H          59.9510   88.0016    9.4370 H       1  UNL1        0.1549
     17 C          62.7142   83.2339   10.7520 C.2     1  UNL1        0.0001
     18 C          62.6149   82.2771   11.9030 C.2     1  UNL1        0.0027
     19 C          62.4824   82.9028   13.2598 C.ar    1  UNL1       -0.0004
     20 C          62.4773   84.4003   13.1747 C.ar    1  UNL1       -0.0002
     21 C          62.3532   85.2221   14.4233 C.ar    1  UNL1       -0.0000
     22 C          62.2343   84.5463   15.7572 C.ar    1  UNL1       -0.0002
     23 C          62.2395   83.0488   15.8424 C.ar    1  UNL1       -0.0007
     24 C          62.3636   82.2270   14.5937 C.ar    1  UNL1        0.0212
     25 C          62.3478   80.7587   14.9001 C.3     1  UNL1        0.2320
     26 O          62.4470   79.6035   13.9484 O.3     1  UNL1       -0.4706
     27 C          62.5864   79.6314   12.4552 C.ar    1  UNL1        0.1412
     28 C          62.6520   78.2455   11.8850 C.ar    1  UNL1        0.0665
     29 C          62.7922   78.0495   10.4044 C.ar    1  UNL1        0.1432
     30 F          62.8577   76.6637    9.8342 F       1  UNL1       -0.2041
     31 C          62.8669   79.2393    9.4941 C.ar    1  UNL1        0.0298
     32 C          62.8014   80.6252   10.0643 C.ar    1  UNL1        0.0053
     33 C          62.6612   80.8212   11.5448 C.ar    1  UNL1        0.0341
     34 C          64.6103   92.1873   13.9502 C.3     1  UNL1        0.0780
     35 C          66.0737   91.9898   14.2137 C.3     1  UNL1        0.0590
     36 O          68.4097   91.7920   13.0937 O.co2   1  UNL1       -0.5491
     37 C          67.0874   92.4879   13.2267 C.2     1  UNL1        0.0517
     38 O          66.7791   93.6819   12.3727 O.co2   1  UNL1       -0.5491
@<TRIPOS>UNITY_ATOM_ATTR
36 1
charge -1
@<TRIPOS>BOND
     1    36    37   ar
     2    37    38   ar
     3    37    35    1
     4    35    34    1
     5    34     1    1
     6     1     2    1
     7     2     3    1
     8     3     4    1
     9     4     5    1
    10     5     6    1
    11     4     7    1
    12     7     8    2
    13     7     9   am
    14     9    10    1
    15    10    11   ar
    16    11    12   ar
    17    12    17    1
    18    17    18    2
    19    18    19    1
    20    19    20   ar
    21    20    21   ar
    22    21    22   ar
    23    22    23   ar
    24    23    24   ar
    25    24    25    1
    26    25    26    1
    27    26    27    1
    28    27    28   ar
    29    28    29   ar
    30    29    30    1
    31    29    31   ar
    32    31    32   ar
    33    32    33   ar
    34    12    13   ar
    35    13    14   ar
    36    14    15   ar
    37     6     1    1
    38    15    10   ar
    39    15     4    1
    40    33    18    1
    41    24    19   ar
    42    33    27   ar
    43     9    16    1
@<TRIPOS>MOLECULE
*****
 38 43 0 0 0
SMALL
GASTEIGER

@<TRIPOS>ATOM
      1 N          59.8143   92.1093    4.1427 N.3     1  UNL1       -0.2723
      2 C          58.3354   91.9335    4.3217 C.3     1  UNL1        0.0729
      3 C          57.8130   90.9064    5.2819 C.3     1  UNL1        0.0301
      4 C          58.7693   90.0550    6.0632 C.3     1  UNL1        0.0917
      5 C          60.2483   90.2307    5.8843 C.3     1  UNL1        0.0301
      6 C          60.7707   91.2579    4.9240 C.3     1  UNL1        0.0729
      7 C          57.3248   89.7669    6.3462 C.2     1  UNL1        0.2291
      8 O          56.1490   90.4553    5.7187 O.2     1  UNL1       -0.2745
      9 N          57.2624   88.6694    7.3669 N.am    1  UNL1       -0.2839
     10 C          58.6683   88.2794    7.7147 C.ar    1  UNL1        0.0467
     11 C          59.2209   87.2550    8.6610 C.ar    1  UNL1        0.0144
     12 C          60.7048   87.0870    8.8014 C.ar    1  UNL1        0.0012
     13 C          61.6362   87.9433    7.9957 C.ar    1  UNL1       -0.0002
     14 C          61.0837   88.9677    7.0494 C.ar    1  UNL1       -0.0026
     15 C          59.5998   89.1357    6.9089 C.ar    1  UNL1       -0.0010
     16 H          56.4425   88.2745    7.7426 H       1  UNL1        0.1549
     17 C          61.2574   86.0627    9.7477 C.2     1  UNL1        0.0001
     18 C          62.0481   86.4977   10.9459 C.2     1  UNL1        0.0027
     19 C          62.2277   87.9785   11.1045 C.ar    1  UNL1       -0.0004
     20 C          61.5568   88.7337    9.9957 C.ar    1  UNL1       -0.0002
     21 C          61.6164   90.2322    9.9658 C.ar    1  UNL1       -0.0000
     22 C          62.3470   90.9754   11.0446 C.ar    1  UNL1       -0.0002
     23 C          63.0178   90.2202   12.1534 C.ar    1  UNL1       -0.0007
     24 C          62.9582   88.7217   12.1833 C.ar    1  UNL1        0.0212
     25 C          63.6896   88.1677   13.3700 C.3     1  UNL1        0.2320
     26 O          63.8712   86.7337   13.7709 O.3     1  UNL1       -0.4706
     27 C          63.3661   85.4995   13.0841 C.ar    1  UNL1        0.1412
     28 C          63.7726   84.2574   13.8203 C.ar    1  UNL1        0.0665
     29 C          63.3678   82.9103   13.2993 C.ar    1  UNL1        0.1432
     30 F          63.7743   81.6683   14.0355 F       1  UNL1       -0.2041
     31 C          62.5565   82.8053   12.0421 C.ar    1  UNL1        0.0298
     32 C          62.1500   84.0473   11.3058 C.ar    1  UNL1        0.0053
     33 C          62.5547   85.3944   11.8268 C.ar    1  UNL1        0.0341
     34 C          60.3367   93.1364    3.1825 C.3     1  UNL1        0.0780
     35 C          61.2432   92.7225    2.0613 C.3     1  UNL1        0.0590
     36 O          63.4440   93.9804    1.4919 O.co2   1  UNL1       -0.5491
     37 C          62.7289   92.8708    2.2043 C.2     1  UNL1        0.0517
     38 O          63.4997   91.9095    3.0597 O.co2   1  UNL1       -0.5491
@<TRIPOS>UNITY_ATOM_ATTR
36 1
charge -1
@<TRIPOS>BOND
     1    36    37   ar
     2    37    38   ar
     3    37    35    1
     4    35    34    1
     5    34     1    1
     6     1     2    1
     7     2     3    1
     8     3     4    1
     9     4     5    1
    10     5     6    1
    11     4     7    1
    12     7     8    2
    13     7     9   am
    14     9    10    1
    15    10    11   ar
    16    11    12   ar
    17    12    17    1
    18    17    18    2
    19    18    19    1
    20    19    20   ar
    21    20    21   ar
    22    21    22   ar
    23    22    23   ar
    24    23    24   ar
    25    24    25    1
    26    25    26    1
    27    26    27    1
    28    27    28   ar
    29    28    29   ar
    30    29    30    1
    31    29    31   ar
    32    31    32   ar
    33    32    33   ar
    34    12    13   ar
    35    13    14   ar
    36    14    15   ar
    37     6     1    1
    38    15    10   ar
    39    15     4    1
    40    33    18    1
    41    24    19   ar
    42    33    27   ar
    43     9    16    1
@<TRIPOS>MOLECULE
*****
 38 43 0 0 0
SMALL
GASTEIGER

@<TRIPOS>ATOM
      1 N          66.0876   93.0256   14.4445 N.3     1  UNL1       -0.2723
      2 C          65.1053   93.3495   15.5310 C.3     1  UNL1        0.0729
      3 C          64.2490   92.2655   16.1155 C.3     1  UNL1        0.0301
      4 C          64.3749   90.8576   15.6135 C.3     1  UNL1        0.0917
      5 C          65.3571   90.5336   14.5270 C.3     1  UNL1        0.0301
      6 C          66.2134   91.6177   13.9425 C.3     1  UNL1        0.0729
      7 C          63.3540   91.0293   16.6990 C.2     1  UNL1        0.2291
      8 O          63.0102   92.3152   17.3906 O.2     1  UNL1       -0.2745
      9 N          62.7373   89.6893   16.9714 N.am    1  UNL1       -0.2839
     10 C          63.3770   88.6895   16.0544 C.ar    1  UNL1        0.0467
     11 C          63.1686   87.2149   15.8751 C.ar    1  UNL1        0.0144
     12 C          63.9725   86.4624   14.8565 C.ar    1  UNL1        0.0012
     13 C          64.9846   87.1843   14.0172 C.ar    1  UNL1       -0.0002
     14 C          65.1929   88.6589   14.1965 C.ar    1  UNL1       -0.0026
     15 C          64.3891   89.4115   15.2151 C.ar    1  UNL1       -0.0010
     16 H          62.0358   89.4994   17.6356 H       1  UNL1        0.1549
     17 C          63.7642   84.9877   14.6772 C.2     1  UNL1        0.0001
     18 C          63.2216   84.4588   13.3826 C.2     1  UNL1        0.0027
     19 C          62.9206   85.4884   12.3340 C.ar    1  UNL1       -0.0004
     20 C          63.2363   86.8724   12.8184 C.ar    1  UNL1       -0.0002
     21 C          63.0069   88.0518   11.9205 C.ar    1  UNL1       -0.0000
     22 C          62.4617   87.8471   10.5381 C.ar    1  UNL1       -0.0002
     23 C          62.1460   86.4631   10.0537 C.ar    1  UNL1       -0.0007
     24 C          62.3755   85.2837   10.9517 C.ar    1  UNL1        0.0212
     25 C          61.9967   83.9989   10.2765 C.3     1  UNL1        0.2320
     26 O          62.0694   82.6015   10.8168 O.3     1  UNL1       -0.4706
     27 C          62.5390   82.1438   12.1659 C.ar    1  UNL1        0.1412
     28 C          62.4486   80.6526   12.3007 C.ar    1  UNL1        0.0665
     29 C          62.8710   79.9879   13.5774 C.ar    1  UNL1        0.1432
     30 F          62.7807   78.4968   13.7122 F       1  UNL1       -0.2041
     31 C          63.3838   80.8145   14.7192 C.ar    1  UNL1        0.0298
     32 C          63.4742   82.3057   14.5845 C.ar    1  UNL1        0.0053
     33 C          63.0518   82.9703   13.3078 C.ar    1  UNL1        0.0341
     34 C          66.9439   94.1096   13.8601 C.3     1  UNL1        0.0780
     35 C          66.4853   94.8518   12.6399 C.3     1  UNL1        0.0590
     36 O          65.2841   93.2662   10.9687 O.co2   1  UNL1       -0.5491
     37 C          66.4415   94.1567   11.3115 C.2     1  UNL1        0.0517
     38 O          67.5552   94.3519   10.3257 O.co2   1  UNL1       -0.5491
@<TRIPOS>UNITY_ATOM_ATTR
36 1
charge -1
@<TRIPOS>BOND
     1    36    37   ar
     2    37    38   ar
     3    37    35    1
     4    35    34    1
     5    34     1    1
     6     1     2    1
     7     2     3    1
     8     3     4    1
     9     4     5    1
    10     5     6    1
    11     4     7    1
    12     7     8    2
    13     7     9   am
    14     9    10    1
    15    10    11   ar
    16    11    12   ar
    17    12    17    1
    18    17    18    2
    19    18    19    1
    20    19    20   ar
    21    20    21   ar
    22    21    22   ar
    23    22    23   ar
    24    23    24   ar
    25    24    25    1
    26    25    26    1
    27    26    27    1
    28    27    28   ar
    29    28    29   ar
    30    29    30    1
    31    29    31   ar
    32    31    32   ar
    33    32    33   ar
    34    12    13   ar
    35    13    14   ar
    36    14    15   ar
    37     6     1    1
    38    15    10   ar
    39    15     4    1
    40    33    18    1
    41    24    19   ar
    42    33    27   ar
    43     9    16    1
