@<TRIPOS>MOLECULE
*****
 37 41 0 0 0
SMALL
GASTEIGER

@<TRIPOS>ATOM
      1 C          61.9715   86.6060   11.1920 C.3     1  UNL1        0.1532
      2 N          60.7493   87.1919   11.3269 N.3     1  UNL1       -0.3221
      3 C          61.0581   86.5579   10.0031 C.3     1  UNL1        0.0541
      4 C          62.3845   85.8934    9.7808 C.3     1  UNL1        0.0353
      5 C          62.5389   85.3052    8.3990 C.3     1  UNL1        0.0767
      6 C          62.4144   84.8261    6.9830 C.3     1  UNL1        0.0216
      7 C          61.0611   85.2273    6.4753 C.3     1  UNL1        0.0216
      8 C          60.3493   85.9543    7.5775 C.3     1  UNL1        0.0767
      9 C          60.0406   86.5883    8.9014 C.3     1  UNL1        0.0353
     10 N          61.2626   86.0024    8.7664 N.am    1  UNL1       -0.2814
     11 C          60.9539   86.6364   10.0903 C.2     1  UNL1        0.2437
     12 O          59.6276   87.3008   10.3126 O.2     1  UNL1       -0.2731
     13 H          61.5469   87.0784   11.9525 H       1  UNL1        0.1188
     14 H          59.9298   86.7430   11.7359 H       1  UNL1        0.1188
     15 N          61.8608   85.5871   12.2873 N.am    1  UNL1       -0.2978
     16 C          62.7920   84.4116   12.3149 C.2     1  UNL1        0.2257
     17 O          63.9176   83.9529   11.4359 O.2     1  UNL1       -0.2748
     18 H          61.1769   85.6900   12.9880 H       1  UNL1        0.1498
     19 C          62.6814   83.3927   13.4102 C.3     1  UNL1        0.0884
     20 C          62.5452   82.0621   14.0890 C.3     1  UNL1        0.0135
     21 C          62.5693   82.1410   12.5913 C.3     1  UNL1        0.0135
     22 C          62.7551   84.2906   14.6096 C.ar    1  UNL1       -0.0040
     23 C          61.4989   84.6918   15.3244 C.ar    1  UNL1       -0.0021
     24 C          61.5727   85.5897   16.5238 C.ar    1  UNL1        0.0111
     25 C          62.9027   86.0863   17.0082 C.ar    1  UNL1        0.0585
     26 CL         62.9764   86.9842   18.2076 Cl      1  UNL1       -0.0822
     27 C          64.1588   85.6851   16.2933 C.ar    1  UNL1        0.0225
     28 C          64.0850   84.7872   15.0940 C.ar    1  UNL1        0.0550
     29 CL         65.3412   84.3860   14.3791 Cl      1  UNL1       -0.0825
     30 C          63.0996   87.5944   11.1983 C.3     1  UNL1        0.0553
     31 C          63.3169   88.4770   12.3916 C.ar    1  UNL1       -0.0200
     32 C          62.9158   89.9215   12.3390 C.ar    1  UNL1       -0.0037
     33 C          63.1330   90.8041   13.5322 C.ar    1  UNL1        0.0064
     34 C          63.7514   90.2422   14.7781 C.ar    1  UNL1        0.0345
     35 BR         63.9686   91.1249   15.9713 Br      1  UNL1       -0.0490
     36 C          64.1524   88.7978   14.8306 C.ar    1  UNL1        0.0064
     37 C          63.9352   87.9152   13.6374 C.ar    1  UNL1       -0.0037
@<TRIPOS>BOND
     1     2     3    1
     2     3     4    1
     3     5     4    1
     4     5     6    1
     5     6     7    1
     6     8     7    1
     7     8     9    1
     8     8    10    1
     9    10    11   am
    10    11    12    2
    11    11     1    1
    12     1    30    1
    13    30    31    1
    14    31    32   ar
    15    32    33   ar
    16    33    34   ar
    17    34    35    1
    18    34    36   ar
    19    36    37   ar
    20     1    15    1
    21    15    16   am
    22    16    17    2
    23    16    19    1
    24    19    22    1
    25    22    23   ar
    26    23    24   ar
    27    24    25   ar
    28    25    26    1
    29    25    27   ar
    30    27    28   ar
    31    28    29    1
    32    19    20    1
    33    20    21    1
    34     9     3    1
    35    37    31   ar
    36    21    19    1
    37    10     5    1
    38    28    22   ar
    39     2    13    1
    40     2    14    1
    41    15    18    1
@<TRIPOS>MOLECULE
*****
 37 41 0 0 0
SMALL
GASTEIGER

@<TRIPOS>ATOM
      1 C          61.6621   87.2187   10.9081 C.3     1  UNL1        0.1532
      2 N          60.3204   87.4368   10.8225 N.3     1  UNL1       -0.3221
      3 C          60.9618   86.6866    9.6930 C.3     1  UNL1        0.0541
      4 C          62.4357   86.4090    9.7183 C.3     1  UNL1        0.0353
      5 C          62.9252   85.6459    8.5111 C.3     1  UNL1        0.0767
      6 C          63.1237   84.8976    7.2263 C.3     1  UNL1        0.0216
      7 C          61.7921   84.7850    6.5450 C.3     1  UNL1        0.0216
      8 C          60.7707   85.4637    7.4087 C.3     1  UNL1        0.0767
      9 C          60.1293   86.2139    8.5382 C.3     1  UNL1        0.0353
     10 N          61.4709   85.9958    8.6238 N.am    1  UNL1       -0.2814
     11 C          60.8296   86.7460    9.7533 C.2     1  UNL1        0.2437
     12 O          59.3557   87.0236    9.7280 O.2     1  UNL1       -0.2731
     13 H          61.0287   87.6791   11.5153 H       1  UNL1        0.1188
     14 H          59.6061   86.8522   11.2566 H       1  UNL1        0.1188
     15 N          62.7871   86.3684   11.4193 N.am    1  UNL1       -0.2978
     16 C          62.6331   85.6163   12.7079 C.2     1  UNL1        0.2257
     17 O          61.5277   85.4876   13.7137 O.2     1  UNL1       -0.2748
     18 H          63.6266   86.3040   10.9091 H       1  UNL1        0.1498
     19 C          63.7581   84.7659   13.2192 C.3     1  UNL1        0.0884
     20 C          64.9552   84.3437   14.0182 C.3     1  UNL1        0.0135
     21 C          64.3567   85.7034   14.2255 C.3     1  UNL1        0.0135
     22 C          63.5501   83.5331   12.3903 C.ar    1  UNL1       -0.0040
     23 C          64.1408   83.4460   11.0143 C.ar    1  UNL1       -0.0021
     24 C          63.9328   82.2132   10.1854 C.ar    1  UNL1        0.0111
     25 C          63.1341   81.0675   10.7327 C.ar    1  UNL1        0.0585
     26 CL         62.9261   79.8346    9.9039 Cl      1  UNL1       -0.0822
     27 C          62.5434   81.1546   12.1088 C.ar    1  UNL1        0.0225
     28 C          62.7514   82.3874   12.9375 C.ar    1  UNL1        0.0550
     29 CL         62.1607   82.4745   14.3136 Cl      1  UNL1       -0.0825
     30 C          61.3696   88.5416   11.5516 C.3     1  UNL1        0.0553
     31 C          62.4492   89.5772   11.6618 C.ar    1  UNL1       -0.0200
     32 C          63.2366   89.7074   12.9319 C.ar    1  UNL1       -0.0037
     33 C          64.3162   90.7429   13.0421 C.ar    1  UNL1        0.0064
     34 C          64.6084   91.6482   11.8823 C.ar    1  UNL1        0.0345
     35 BR         65.6880   92.6837   11.9925 Br      1  UNL1       -0.0490
     36 C          63.8210   91.5179   10.6122 C.ar    1  UNL1        0.0064
     37 C          62.7414   90.4824   10.5020 C.ar    1  UNL1       -0.0037
@<TRIPOS>BOND
     1     2     3    1
     2     3     4    1
     3     5     4    1
     4     5     6    1
     5     6     7    1
     6     8     7    1
     7     8     9    1
     8     8    10    1
     9    10    11   am
    10    11    12    2
    11    11     1    1
    12     1    30    1
    13    30    31    1
    14    31    32   ar
    15    32    33   ar
    16    33    34   ar
    17    34    35    1
    18    34    36   ar
    19    36    37   ar
    20     1    15    1
    21    15    16   am
    22    16    17    2
    23    16    19    1
    24    19    22    1
    25    22    23   ar
    26    23    24   ar
    27    24    25   ar
    28    25    26    1
    29    25    27   ar
    30    27    28   ar
    31    28    29    1
    32    19    20    1
    33    20    21    1
    34     9     3    1
    35    37    31   ar
    36    21    19    1
    37    10     5    1
    38    28    22   ar
    39     2    13    1
    40     2    14    1
    41    15    18    1
@<TRIPOS>MOLECULE
*****
 37 41 0 0 0
SMALL
GASTEIGER

@<TRIPOS>ATOM
      1 C          64.0357   84.1937   12.9146 C.3     1  UNL1        0.1532
      2 N          64.8296   83.6831   11.9328 N.3     1  UNL1       -0.3221
      3 C          63.7909   82.7695   12.5125 C.3     1  UNL1        0.0541
      4 C          62.8800   83.2623   13.5976 C.3     1  UNL1        0.0353
      5 C          61.8927   82.2236   14.0726 C.3     1  UNL1        0.0767
      6 C          61.0444   81.0158   14.3402 C.3     1  UNL1        0.0216
      7 C          61.4965   79.9192   13.4220 C.3     1  UNL1        0.0216
      8 C          62.6242   80.4493   12.5869 C.3     1  UNL1        0.0767
      9 C          63.6630   81.3630   12.0072 C.3     1  UNL1        0.0353
     10 N          62.8690   81.8735   12.9890 N.am    1  UNL1       -0.2814
     11 C          63.9078   82.7872   12.4093 C.2     1  UNL1        0.2437
     12 O          64.8187   82.2943   11.3242 O.2     1  UNL1       -0.2731
     13 H          64.7753   84.5932   12.3901 H       1  UNL1        0.1188
     14 H          64.6642   83.7947   10.9325 H       1  UNL1        0.1188
     15 N          63.8881   85.3473   11.9674 N.am    1  UNL1       -0.2978
     16 C          62.5406   85.9677   11.7453 C.2     1  UNL1        0.2257
     17 O          61.1675   85.6981   12.2856 O.2     1  UNL1       -0.2748
     18 H          64.6756   85.6973   11.4914 H       1  UNL1        0.1498
     19 C          62.3929   87.1213   10.7980 C.3     1  UNL1        0.0884
     20 C          62.3388   88.5328   10.2935 C.3     1  UNL1        0.0135
     21 C          62.6113   88.2647   11.7440 C.3     1  UNL1        0.0135
     22 C          62.1232   86.3784    9.5231 C.ar    1  UNL1       -0.0040
     23 C          63.2004   85.5400    8.9013 C.ar    1  UNL1       -0.0021
     24 C          62.9307   84.7971    7.6264 C.ar    1  UNL1        0.0111
     25 C          61.5837   84.8928    6.9733 C.ar    1  UNL1        0.0585
     26 CL         61.3139   84.1499    5.6983 Cl      1  UNL1       -0.0822
     27 C          60.5065   85.7312    7.5951 C.ar    1  UNL1        0.0225
     28 C          60.7763   86.4740    8.8699 C.ar    1  UNL1        0.0550
     29 CL         59.6990   87.3125    9.4917 Cl      1  UNL1       -0.0825
     30 C          64.3113   84.4465   14.3672 C.3     1  UNL1        0.0553
     31 C          64.0365   85.7973   14.9587 C.ar    1  UNL1       -0.0200
     32 C          64.5733   87.0303   14.2941 C.ar    1  UNL1       -0.0037
     33 C          64.2986   88.3811   14.8855 C.ar    1  UNL1        0.0064
     34 C          63.4871   88.4990   16.1416 C.ar    1  UNL1        0.0345
     35 BR         63.2123   89.8498   16.7331 Br      1  UNL1       -0.0490
     36 C          62.9503   87.2660   16.8062 C.ar    1  UNL1        0.0064
     37 C          63.2251   85.9152   16.2148 C.ar    1  UNL1       -0.0037
@<TRIPOS>BOND
     1     2     3    1
     2     3     4    1
     3     5     4    1
     4     5     6    1
     5     6     7    1
     6     8     7    1
     7     8     9    1
     8     8    10    1
     9    10    11   am
    10    11    12    2
    11    11     1    1
    12     1    30    1
    13    30    31    1
    14    31    32   ar
    15    32    33   ar
    16    33    34   ar
    17    34    35    1
    18    34    36   ar
    19    36    37   ar
    20     1    15    1
    21    15    16   am
    22    16    17    2
    23    16    19    1
    24    19    22    1
    25    22    23   ar
    26    23    24   ar
    27    24    25   ar
    28    25    26    1
    29    25    27   ar
    30    27    28   ar
    31    28    29    1
    32    19    20    1
    33    20    21    1
    34     9     3    1
    35    37    31   ar
    36    21    19    1
    37    10     5    1
    38    28    22   ar
    39     2    13    1
    40     2    14    1
    41    15    18    1
@<TRIPOS>MOLECULE
*****
 37 41 0 0 0
SMALL
GASTEIGER

@<TRIPOS>ATOM
      1 C          62.1513   87.9081   11.1471 C.3     1  UNL1        0.1532
      2 N          60.8185   88.1165   11.3351 N.3     1  UNL1       -0.3221
      3 C          61.2159   87.2555   10.1730 C.3     1  UNL1        0.0541
      4 C          62.6659   86.9818    9.9035 C.3     1  UNL1        0.0353
      5 C          62.8984   86.1000    8.7002 C.3     1  UNL1        0.0767
      6 C          62.8298   85.2251    7.4838 C.3     1  UNL1        0.0216
      7 C          61.3849   85.0440    7.1240 C.3     1  UNL1        0.0216
      8 C          60.5605   85.8070    8.1181 C.3     1  UNL1        0.0767
      9 C          60.1632   86.6681    9.2803 C.3     1  UNL1        0.0353
     10 N          61.4959   86.4596    9.0923 N.am    1  UNL1       -0.2814
     11 C          61.0986   87.3207   10.2545 C.2     1  UNL1        0.2437
     12 O          59.6487   87.5944   10.5240 O.2     1  UNL1       -0.2731
     13 H          61.6548   88.4278   11.8292 H       1  UNL1        0.1188
     14 H          60.2285   87.5792   11.9703 H       1  UNL1        0.1188
     15 N          63.1650   87.0154   11.7995 N.am    1  UNL1       -0.2978
     16 C          62.7143   85.8594   12.6422 C.2     1  UNL1        0.2257
     17 O          61.3721   85.3175   13.0360 O.2     1  UNL1       -0.2748
     18 H          64.1261   87.1883   11.6745 H       1  UNL1        0.1498
     19 C          63.7279   84.9666   13.2946 C.3     1  UNL1        0.0884
     20 C          64.8041   84.5052   14.2320 C.3     1  UNL1        0.0135
     21 C          64.2605   85.8989   14.3420 C.3     1  UNL1        0.0135
     22 C          63.5473   83.7242   12.4738 C.ar    1  UNL1       -0.0040
     23 C          64.0894   83.6631   11.0764 C.ar    1  UNL1       -0.0021
     24 C          63.9087   82.4206   10.2556 C.ar    1  UNL1        0.0111
     25 C          63.1860   81.2394   10.8321 C.ar    1  UNL1        0.0585
     26 CL         63.0053   79.9969   10.0112 Cl      1  UNL1       -0.0822
     27 C          62.6439   81.3006   12.2293 C.ar    1  UNL1        0.0225
     28 C          62.8245   82.5429   13.0501 C.ar    1  UNL1        0.0550
     29 CL         62.2824   82.6040   14.4474 Cl      1  UNL1       -0.0825
     30 C          62.1903   89.3882   11.3874 C.3     1  UNL1        0.0553
     31 C          63.2725   89.9814   12.2400 C.ar    1  UNL1       -0.0200
     32 C          63.9713   91.2340   11.8008 C.ar    1  UNL1       -0.0037
     33 C          65.0535   91.8273   12.6534 C.ar    1  UNL1        0.0064
     34 C          65.4370   91.1680   13.9450 C.ar    1  UNL1        0.0345
     35 BR         66.5193   91.7613   14.7975 Br      1  UNL1       -0.0490
     36 C          64.7383   89.9154   14.3841 C.ar    1  UNL1        0.0064
     37 C          63.6561   89.3221   13.5316 C.ar    1  UNL1       -0.0037
@<TRIPOS>BOND
     1     2     3    1
     2     3     4    1
     3     5     4    1
     4     5     6    1
     5     6     7    1
     6     8     7    1
     7     8     9    1
     8     8    10    1
     9    10    11   am
    10    11    12    2
    11    11     1    1
    12     1    30    1
    13    30    31    1
    14    31    32   ar
    15    32    33   ar
    16    33    34   ar
    17    34    35    1
    18    34    36   ar
    19    36    37   ar
    20     1    15    1
    21    15    16   am
    22    16    17    2
    23    16    19    1
    24    19    22    1
    25    22    23   ar
    26    23    24   ar
    27    24    25   ar
    28    25    26    1
    29    25    27   ar
    30    27    28   ar
    31    28    29    1
    32    19    20    1
    33    20    21    1
    34     9     3    1
    35    37    31   ar
    36    21    19    1
    37    10     5    1
    38    28    22   ar
    39     2    13    1
    40     2    14    1
    41    15    18    1
@<TRIPOS>MOLECULE
*****
 37 41 0 0 0
SMALL
GASTEIGER

@<TRIPOS>ATOM
      1 C          63.8138   90.5153   14.1062 C.3     1  UNL1        0.1532
      2 N          63.2670   91.0835   15.2167 N.3     1  UNL1       -0.3221
      3 C          63.5222   89.6061   15.2631 C.3     1  UNL1        0.0541
      4 C          64.1225   88.9111   14.0772 C.3     1  UNL1        0.0353
      5 C          64.3155   87.4279   14.2829 C.3     1  UNL1        0.0767
      6 C          64.3895   86.0072   14.7586 C.3     1  UNL1        0.0216
      7 C          63.8436   85.9569   16.1548 C.3     1  UNL1        0.0216
      8 C          63.4322   87.3464   16.5421 C.3     1  UNL1        0.0767
      9 C          63.1770   88.8238   16.4955 C.3     1  UNL1        0.0353
     10 N          63.7238   88.2556   15.3852 N.am    1  UNL1       -0.2814
     11 C          63.4686   89.7330   15.3387 C.2     1  UNL1        0.2437
     12 O          62.8683   90.4280   16.5246 O.2     1  UNL1       -0.2731
     13 H          63.5591   91.4507   14.3110 H       1  UNL1        0.1188
     14 H          63.7968   91.5435   15.9570 H       1  UNL1        0.1188
     15 N          65.2428   90.8689   13.8181 N.am    1  UNL1       -0.2978
     16 C          65.9125   91.9696   14.5861 C.2     1  UNL1        0.2257
     17 O          65.4690   92.8977   15.6779 O.2     1  UNL1       -0.2748
     18 H          65.7411   90.3786   13.1249 H       1  UNL1        0.1498
     19 C          67.3414   92.3234   14.2980 C.3     1  UNL1        0.0884
     20 C          68.8205   92.4818   14.4901 C.3     1  UNL1        0.0135
     21 C          67.9824   91.8836   15.5809 C.3     1  UNL1        0.0135
     22 C          67.1967   92.8860   12.9150 C.ar    1  UNL1       -0.0040
     23 C          66.3127   94.0744   12.6775 C.ar    1  UNL1       -0.0021
     24 C          66.1680   94.6370   11.2945 C.ar    1  UNL1        0.0111
     25 C          66.9072   94.0111   10.1491 C.ar    1  UNL1        0.0585
     26 CL         66.7625   94.5737    8.7661 Cl      1  UNL1       -0.0822
     27 C          67.7911   92.8227   10.3867 C.ar    1  UNL1        0.0225
     28 C          67.9358   92.2602   11.7696 C.ar    1  UNL1        0.0550
     29 CL         68.8198   91.0718   12.0072 Cl      1  UNL1       -0.0825
     30 C          62.7301   90.9439   13.1620 C.3     1  UNL1        0.0553
     31 C          62.1573   89.9627   12.1826 C.ar    1  UNL1       -0.0200
     32 C          60.7400   89.4946   12.3318 C.ar    1  UNL1       -0.0037
     33 C          60.1671   88.5135   11.3524 C.ar    1  UNL1        0.0064
     34 C          61.0116   88.0004   10.2238 C.ar    1  UNL1        0.0345
     35 BR         60.4388   87.0193    9.2444 Br      1  UNL1       -0.0490
     36 C          62.4288   88.4686   10.0745 C.ar    1  UNL1        0.0064
     37 C          63.0017   89.4497   11.0539 C.ar    1  UNL1       -0.0037
@<TRIPOS>BOND
     1     2     3    1
     2     3     4    1
     3     5     4    1
     4     5     6    1
     5     6     7    1
     6     8     7    1
     7     8     9    1
     8     8    10    1
     9    10    11   am
    10    11    12    2
    11    11     1    1
    12     1    30    1
    13    30    31    1
    14    31    32   ar
    15    32    33   ar
    16    33    34   ar
    17    34    35    1
    18    34    36   ar
    19    36    37   ar
    20     1    15    1
    21    15    16   am
    22    16    17    2
    23    16    19    1
    24    19    22    1
    25    22    23   ar
    26    23    24   ar
    27    24    25   ar
    28    25    26    1
    29    25    27   ar
    30    27    28   ar
    31    28    29    1
    32    19    20    1
    33    20    21    1
    34     9     3    1
    35    37    31   ar
    36    21    19    1
    37    10     5    1
    38    28    22   ar
    39     2    13    1
    40     2    14    1
    41    15    18    1
@<TRIPOS>MOLECULE
*****
 37 41 0 0 0
SMALL
GASTEIGER

@<TRIPOS>ATOM
      1 C          63.3816   85.3106   13.4008 C.3     1  UNL1        0.1532
      2 N          62.4132   84.7928   14.2064 N.3     1  UNL1       -0.3221
      3 C          62.8889   83.9321   13.0738 C.3     1  UNL1        0.0541
      4 C          63.9535   84.4358   12.1449 C.3     1  UNL1        0.0353
      5 C          64.3203   83.4521   11.0600 C.3     1  UNL1        0.0767
      6 C          64.4777   82.3002   10.1122 C.3     1  UNL1        0.0216
      7 C          63.5231   81.2216   10.5309 C.3     1  UNL1        0.0216
      8 C          62.7757   81.7069   11.7375 C.3     1  UNL1        0.0767
      9 C          62.3000   82.5676   12.8701 C.3     1  UNL1        0.0353
     10 N          63.2684   83.0854   12.0645 N.am    1  UNL1       -0.2814
     11 C          62.7927   83.9462   13.1971 C.2     1  UNL1        0.2437
     12 O          61.7282   83.4424   14.1261 O.2     1  UNL1       -0.2731
     13 H          62.9174   85.6794   14.1947 H       1  UNL1        0.1188
     14 H          62.5850   84.3156   15.0914 H       1  UNL1        0.1188
     15 N          63.4250   86.2864   12.2624 N.am    1  UNL1       -0.2978
     16 C          62.1487   86.7718   11.6417 C.2     1  UNL1        0.2257
     17 O          60.6959   86.5002   11.8982 O.2     1  UNL1       -0.2748
     18 H          64.2911   86.6082   11.9226 H       1  UNL1        0.1498
     19 C          62.1919   87.7476   10.5033 C.3     1  UNL1        0.0884
     20 C          62.3141   89.0474    9.7648 C.3     1  UNL1        0.0135
     21 C          62.4343   89.0199   11.2597 C.3     1  UNL1        0.0135
     22 C          61.9645   86.8140    9.3514 C.ar    1  UNL1       -0.0040
     23 C          63.0731   85.9200    8.8804 C.ar    1  UNL1       -0.0021
     24 C          62.8457   84.9864    7.7285 C.ar    1  UNL1        0.0111
     25 C          61.5096   84.9469    7.0477 C.ar    1  UNL1        0.0585
     26 CL         61.2822   84.0133    5.8958 Cl      1  UNL1       -0.0822
     27 C          60.4011   85.8409    7.5187 C.ar    1  UNL1        0.0225
     28 C          60.6285   86.7744    8.6706 C.ar    1  UNL1        0.0550
     29 CL         59.5199   87.6684    9.1416 Cl      1  UNL1       -0.0825
     30 C          63.9272   85.6992   14.7429 C.3     1  UNL1        0.0553
     31 C          63.8729   87.1304   15.1888 C.ar    1  UNL1       -0.0200
     32 C          63.2426   87.4828   16.5037 C.ar    1  UNL1       -0.0037
     33 C          63.1883   88.9139   16.9497 C.ar    1  UNL1        0.0064
     34 C          63.7642   89.9927   16.0809 C.ar    1  UNL1        0.0345
     35 BR         63.7098   91.4238   16.5269 Br      1  UNL1       -0.0490
     36 C          64.3944   89.6403   14.7661 C.ar    1  UNL1        0.0064
     37 C          64.4487   88.2091   14.3201 C.ar    1  UNL1       -0.0037
@<TRIPOS>BOND
     1     2     3    1
     2     3     4    1
     3     5     4    1
     4     5     6    1
     5     6     7    1
     6     8     7    1
     7     8     9    1
     8     8    10    1
     9    10    11   am
    10    11    12    2
    11    11     1    1
    12     1    30    1
    13    30    31    1
    14    31    32   ar
    15    32    33   ar
    16    33    34   ar
    17    34    35    1
    18    34    36   ar
    19    36    37   ar
    20     1    15    1
    21    15    16   am
    22    16    17    2
    23    16    19    1
    24    19    22    1
    25    22    23   ar
    26    23    24   ar
    27    24    25   ar
    28    25    26    1
    29    25    27   ar
    30    27    28   ar
    31    28    29    1
    32    19    20    1
    33    20    21    1
    34     9     3    1
    35    37    31   ar
    36    21    19    1
    37    10     5    1
    38    28    22   ar
    39     2    13    1
    40     2    14    1
    41    15    18    1
@<TRIPOS>MOLECULE
*****
 37 41 0 0 0
SMALL
GASTEIGER

@<TRIPOS>ATOM
      1 C          63.5596   89.8258   14.4258 C.3     1  UNL1        0.1532
      2 N          62.8249   90.1424   15.5281 N.3     1  UNL1       -0.3221
      3 C          64.1539   90.8213   15.3775 C.3     1  UNL1        0.0541
      4 C          65.0184   90.5223   14.1887 C.3     1  UNL1        0.0353
      5 C          66.3211   91.2854   14.1847 C.3     1  UNL1        0.0767
      6 C          67.5138   92.1589   14.4388 C.3     1  UNL1        0.0216
      7 C          67.2828   92.8962   15.7246 C.3     1  UNL1        0.0216
      8 C          65.9474   92.4783   16.2651 C.3     1  UNL1        0.0767
      9 C          64.6184   91.7993   16.4157 C.3     1  UNL1        0.0353
     10 N          65.3531   91.4827   15.3134 N.am    1  UNL1       -0.2814
     11 C          64.0241   90.8037   15.4640 C.2     1  UNL1        0.2437
     12 O          63.1595   91.1027   16.6527 O.2     1  UNL1       -0.2731
     13 H          62.6717   89.5158   14.7379 H       1  UNL1        0.1188
     14 H          62.0854   90.8445   15.5536 H       1  UNL1        0.1188
     15 N          63.0570   88.4745   14.8399 N.am    1  UNL1       -0.2978
     16 C          63.9956   87.3053   14.8802 C.2     1  UNL1        0.2257
     17 O          65.4550   87.1296   14.5809 O.2     1  UNL1       -0.2748
     18 H          62.1111   88.3551   15.0852 H       1  UNL1        0.1498
     19 C          63.4932   85.9539   15.2943 C.3     1  UNL1        0.0884
     20 C          62.9674   84.8517   16.1651 C.3     1  UNL1        0.0135
     21 C          63.2517   86.2018   16.7538 C.3     1  UNL1        0.0135
     22 C          63.5602   85.2368   13.9785 C.ar    1  UNL1       -0.0040
     23 C          62.5932   85.5834   12.8853 C.ar    1  UNL1       -0.0021
     24 C          62.6602   84.8662   11.5695 C.ar    1  UNL1        0.0111
     25 C          63.6942   83.8025   11.3469 C.ar    1  UNL1        0.0585
     26 CL         63.7612   83.0854   10.0311 Cl      1  UNL1       -0.0822
     27 C          64.6611   83.4560   12.4401 C.ar    1  UNL1        0.0225
     28 C          64.5941   84.1732   13.7558 C.ar    1  UNL1        0.0550
     29 CL         65.5610   83.8266   14.8490 Cl      1  UNL1       -0.0825
     30 C          63.5976   90.1991   12.9736 C.3     1  UNL1        0.0553
     31 C          62.6050   89.6035   12.0197 C.ar    1  UNL1       -0.0200
     32 C          61.1487   89.9403   12.1456 C.ar    1  UNL1       -0.0037
     33 C          60.1559   89.3447   11.1917 C.ar    1  UNL1        0.0064
     34 C          60.6195   88.4122   10.1121 C.ar    1  UNL1        0.0345
     35 BR         59.6268   87.8165    9.1583 Br      1  UNL1       -0.0490
     36 C          62.0758   88.0753    9.9863 C.ar    1  UNL1        0.0064
     37 C          63.0685   88.6710   10.9401 C.ar    1  UNL1       -0.0037
@<TRIPOS>BOND
     1     2     3    1
     2     3     4    1
     3     5     4    1
     4     5     6    1
     5     6     7    1
     6     8     7    1
     7     8     9    1
     8     8    10    1
     9    10    11   am
    10    11    12    2
    11    11     1    1
    12     1    30    1
    13    30    31    1
    14    31    32   ar
    15    32    33   ar
    16    33    34   ar
    17    34    35    1
    18    34    36   ar
    19    36    37   ar
    20     1    15    1
    21    15    16   am
    22    16    17    2
    23    16    19    1
    24    19    22    1
    25    22    23   ar
    26    23    24   ar
    27    24    25   ar
    28    25    26    1
    29    25    27   ar
    30    27    28   ar
    31    28    29    1
    32    19    20    1
    33    20    21    1
    34     9     3    1
    35    37    31   ar
    36    21    19    1
    37    10     5    1
    38    28    22   ar
    39     2    13    1
    40     2    14    1
    41    15    18    1
@<TRIPOS>MOLECULE
*****
 37 41 0 0 0
SMALL
GASTEIGER

@<TRIPOS>ATOM
      1 C          62.6073   88.0949   11.5563 C.3     1  UNL1        0.1532
      2 N          62.3065   88.8982   10.4983 N.3     1  UNL1       -0.3221
      3 C          63.0585   89.5233   11.6357 C.3     1  UNL1        0.0541
      4 C          63.4246   88.7002   12.8351 C.3     1  UNL1        0.0353
      5 C          64.1779   89.4749   13.8895 C.3     1  UNL1        0.0767
      6 C          64.8966   90.4747   14.7462 C.3     1  UNL1        0.0216
      7 C          64.9079   91.7860   14.0180 C.3     1  UNL1        0.0216
      8 C          64.1962   91.5967   12.7112 C.3     1  UNL1        0.0767
      9 C          63.4442   90.9715   11.5738 C.3     1  UNL1        0.0353
     10 N          63.7450   90.1683   12.6318 N.am    1  UNL1       -0.2814
     11 C          62.9931   89.5432   11.4943 C.2     1  UNL1        0.2437
     12 O          62.6269   90.3662   10.2950 O.2     1  UNL1       -0.2731
     13 H          62.1288   87.9158   10.7073 H       1  UNL1        0.1188
     14 H          62.8603   88.9694    9.6447 H       1  UNL1        0.1188
     15 N          63.4816   87.1163   12.2828 N.am    1  UNL1       -0.2978
     16 C          62.9271   85.7906   12.7127 C.2     1  UNL1        0.2257
     17 O          61.5854   85.1318   12.5867 O.2     1  UNL1       -0.2748
     18 H          64.4194   87.3441   12.4774 H       1  UNL1        0.1498
     19 C          63.8014   84.8119   13.4392 C.3     1  UNL1        0.0884
     20 C          64.7455   84.2550   14.4631 C.3     1  UNL1        0.0135
     21 C          64.3063   85.6867   14.5481 C.3     1  UNL1        0.0135
     22 C          63.6001   83.5971   12.5826 C.ar    1  UNL1       -0.0040
     23 C          64.2071   83.5368   11.2122 C.ar    1  UNL1       -0.0021
     24 C          64.0058   82.3220   10.3555 C.ar    1  UNL1        0.0111
     25 C          63.1974   81.1676   10.8693 C.ar    1  UNL1        0.0585
     26 CL         62.9961   79.9528   10.0126 Cl      1  UNL1       -0.0822
     27 C          62.5904   81.2280   12.2397 C.ar    1  UNL1        0.0225
     28 C          62.7918   82.4427   13.0962 C.ar    1  UNL1        0.0550
     29 CL         62.1847   82.5030   14.4666 Cl      1  UNL1       -0.0825
     30 C          61.3473   87.6254   10.8917 C.3     1  UNL1        0.0553
     31 C          61.4214   86.7989    9.6422 C.ar    1  UNL1       -0.0200
     32 C          60.2106   86.6487    8.7695 C.ar    1  UNL1       -0.0037
     33 C          60.2846   85.8222    7.5199 C.ar    1  UNL1        0.0064
     34 C          61.5695   85.1460    7.1430 C.ar    1  UNL1        0.0345
     35 BR         61.6435   84.3195    5.8934 Br      1  UNL1       -0.0490
     36 C          62.7802   85.2962    8.0157 C.ar    1  UNL1        0.0064
     37 C          62.7061   86.1227    9.2653 C.ar    1  UNL1       -0.0037
@<TRIPOS>BOND
     1     2     3    1
     2     3     4    1
     3     5     4    1
     4     5     6    1
     5     6     7    1
     6     8     7    1
     7     8     9    1
     8     8    10    1
     9    10    11   am
    10    11    12    2
    11    11     1    1
    12     1    30    1
    13    30    31    1
    14    31    32   ar
    15    32    33   ar
    16    33    34   ar
    17    34    35    1
    18    34    36   ar
    19    36    37   ar
    20     1    15    1
    21    15    16   am
    22    16    17    2
    23    16    19    1
    24    19    22    1
    25    22    23   ar
    26    23    24   ar
    27    24    25   ar
    28    25    26    1
    29    25    27   ar
    30    27    28   ar
    31    28    29    1
    32    19    20    1
    33    20    21    1
    34     9     3    1
    35    37    31   ar
    36    21    19    1
    37    10     5    1
    38    28    22   ar
    39     2    13    1
    40     2    14    1
    41    15    18    1
@<TRIPOS>MOLECULE
*****
 37 41 0 0 0
SMALL
GASTEIGER

@<TRIPOS>ATOM
      1 C          63.4949   89.5715   14.3078 C.3     1  UNL1        0.1532
      2 N          62.8362   89.7929   15.4792 N.3     1  UNL1       -0.3221
      3 C          64.0324   90.6530   15.1975 C.3     1  UNL1        0.0541
      4 C          64.8079   90.4665   13.9271 C.3     1  UNL1        0.0353
      5 C          65.9808   91.4078   13.7943 C.3     1  UNL1        0.0767
      6 C          67.0552   92.4457   13.9295 C.3     1  UNL1        0.0216
      7 C          66.8503   93.1576   15.2338 C.3     1  UNL1        0.0216
      8 C          65.6494   92.5596   15.9047 C.3     1  UNL1        0.0767
      9 C          64.4532   91.6995   16.1863 C.3     1  UNL1        0.0353
     10 N          65.1119   91.4781   15.0150 N.am    1  UNL1       -0.2814
     11 C          63.9157   90.6180   15.2966 C.2     1  UNL1        0.2437
     12 O          63.1403   90.8045   16.5670 O.2     1  UNL1       -0.2731
     13 H          62.6963   89.1416   14.7068 H       1  UNL1        0.1188
     14 H          62.0100   90.3824   15.5807 H       1  UNL1        0.1188
     15 N          62.1481   89.6566   13.6531 N.am    1  UNL1       -0.2978
     16 C          62.0315   89.5529   12.1613 C.2     1  UNL1        0.2257
     17 O          63.0207   89.3670   11.0491 O.2     1  UNL1       -0.2748
     18 H          61.3406   89.7806   14.2025 H       1  UNL1        0.1498
     19 C          60.6846   89.6380   11.5064 C.3     1  UNL1        0.0884
     20 C          59.3013   90.1210   11.1856 C.3     1  UNL1        0.0135
     21 C          60.1117   90.8136   12.2410 C.3     1  UNL1        0.0135
     22 C          60.7900   88.4919   10.5444 C.ar    1  UNL1       -0.0040
     23 C          61.0931   87.1129   11.0510 C.ar    1  UNL1       -0.0021
     24 C          61.1984   85.9668   10.0890 C.ar    1  UNL1        0.0111
     25 C          61.0006   86.1998    8.6204 C.ar    1  UNL1        0.0585
     26 CL         61.1059   85.0537    7.6584 Cl      1  UNL1       -0.0822
     27 C          60.6974   87.5788    8.1139 C.ar    1  UNL1        0.0225
     28 C          60.5921   88.7248    9.0759 C.ar    1  UNL1        0.0550
     29 CL         60.2890   90.1037    8.5693 Cl      1  UNL1       -0.0825
     30 C          64.4211   88.4399   13.9738 C.3     1  UNL1        0.0553
     31 C          63.9726   87.0216   14.1674 C.ar    1  UNL1       -0.0200
     32 C          63.9854   86.4115   15.5378 C.ar    1  UNL1       -0.0037
     33 C          63.5370   84.9932   15.7315 C.ar    1  UNL1        0.0064
     34 C          63.0758   84.1851   14.5548 C.ar    1  UNL1        0.0345
     35 BR         62.6275   82.7668   14.7485 Br      1  UNL1       -0.0490
     36 C          63.0631   84.7952   13.1846 C.ar    1  UNL1        0.0064
     37 C          63.5115   86.2135   12.9909 C.ar    1  UNL1       -0.0037
@<TRIPOS>BOND
     1     2     3    1
     2     3     4    1
     3     5     4    1
     4     5     6    1
     5     6     7    1
     6     8     7    1
     7     8     9    1
     8     8    10    1
     9    10    11   am
    10    11    12    2
    11    11     1    1
    12     1    30    1
    13    30    31    1
    14    31    32   ar
    15    32    33   ar
    16    33    34   ar
    17    34    35    1
    18    34    36   ar
    19    36    37   ar
    20     1    15    1
    21    15    16   am
    22    16    17    2
    23    16    19    1
    24    19    22    1
    25    22    23   ar
    26    23    24   ar
    27    24    25   ar
    28    25    26    1
    29    25    27   ar
    30    27    28   ar
    31    28    29    1
    32    19    20    1
    33    20    21    1
    34     9     3    1
    35    37    31   ar
    36    21    19    1
    37    10     5    1
    38    28    22   ar
    39     2    13    1
    40     2    14    1
    41    15    18    1
