@<TRIPOS>MOLECULE
*****
 46 49 0 0 0
SMALL
GASTEIGER

@<TRIPOS>ATOM
      1 N          59.5851   88.5404    7.8012 N.am    1  UNL1       -0.2724
      2 C          60.3312   88.9709    9.0292 C.2     1  UNL1        0.2491
      3 O          60.1605   90.3629    9.5611 O.2     1  UNL1       -0.2727
      4 C          59.7559   87.1483    7.2693 C.3     1  UNL1        0.1111
      5 C          60.4638   86.1128    8.0918 C.3     1  UNL1        0.0939
      6 N          61.5772   85.3086    7.4887 N.3     1  UNL1       -0.2712
      7 C          62.2806   84.2662    5.2152 C.3     1  UNL1        0.0188
      8 C          61.2978   84.3824    6.3424 C.3     1  UNL1        0.0722
      9 C          62.9700   85.4306    8.0320 C.3     1  UNL1        0.0722
     10 C          63.6030   84.2700    8.7408 C.3     1  UNL1        0.0188
     11 C          58.6684   89.5021    7.1050 C.3     1  UNL1        0.1202
     12 C          59.1871   90.3571    5.9870 C.ar    1  UNL1       -0.0023
     13 C          60.6373   90.2980    5.6084 C.ar    1  UNL1       -0.0026
     14 C          61.1560   91.1530    4.4904 C.ar    1  UNL1       -0.0003
     15 C          60.2245   92.0672    3.7511 C.ar    1  UNL1       -0.0000
     16 C          58.7743   92.1264    4.1298 C.ar    1  UNL1       -0.0003
     17 C          58.2556   91.2713    5.2477 C.ar    1  UNL1       -0.0026
     18 C          60.7432   92.9223    2.6331 C.ar    1  UNL1       -0.0000
     19 C          62.2039   92.9063    2.2923 C.ar    1  UNL1       -0.0001
     20 C          62.7226   93.7613    1.1744 C.ar    1  UNL1        0.0039
     21 C          61.7807   94.6324    0.3972 C.ar    1  UNL1        0.0714
     22 C          60.3199   94.6483    0.7380 C.ar    1  UNL1        0.0039
     23 C          59.8013   93.7933    1.8560 C.ar    1  UNL1       -0.0001
     24 C          62.2993   95.4874   -0.7208 C.3     1  UNL1        0.4186
     25 F          62.8180   96.3424   -1.8387 F       1  UNL1       -0.1659
     26 F          63.6940   95.0151   -0.4349 F       1  UNL1       -0.1659
     27 F          60.9047   95.9597   -1.0066 F       1  UNL1       -0.1659
     28 C          61.2480   88.0091    9.7254 C.3     1  UNL1        0.1934
     29 N          62.1337   88.4884   10.8371 N.ar    1  UNL1       -0.2972
     30 C          62.5471   89.9291   10.8986 C.ar    1  UNL1        0.0888
     31 C          63.4328   90.4084   12.0103 C.ar    1  UNL1        0.1005
     32 C          63.9051   89.4470   13.0604 C.ar    1  UNL1        0.2880
     33 O          64.7909   89.9263   14.1721 O.2     1  UNL1       -0.2645
     34 N          63.4918   88.0065   12.9989 N.ar    1  UNL1       -0.1840
     35 C          62.6061   87.5272   11.8872 C.ar    1  UNL1        0.1751
     36 S          63.8461   91.8490   12.0718 S.3     1  UNL1       -0.1066
     37 C          65.1172   92.2935   11.4107 C.3     1  UNL1        0.0744
     38 S          62.1927   86.0866   11.8257 S.3     1  UNL1       -0.0724
     39 C          63.2242   85.0044   11.9485 C.3     1  UNL1        0.0913
     40 C          62.8265   83.6403   12.4291 C.ar    1  UNL1       -0.0108
     41 C          62.9243   82.4620   11.5061 C.ar    1  UNL1       -0.0011
     42 C          62.5266   81.0978   11.9867 C.ar    1  UNL1        0.0293
     43 C          62.0311   80.9120   13.3903 C.ar    1  UNL1        0.1401
     44 F          61.6334   79.5479   13.8708 F       1  UNL1       -0.2042
     45 C          61.9333   82.0904   14.3132 C.ar    1  UNL1        0.0293
     46 C          62.3310   83.4545   13.8327 C.ar    1  UNL1       -0.0011
@<TRIPOS>BOND
     1     7     8    1
     2     8     6    1
     3     6     9    1
     4     9    10    1
     5     6     5    1
     6     5     4    1
     7     4     1    1
     8     1    11    1
     9    11    12    1
    10    12    13   ar
    11    13    14   ar
    12    14    15   ar
    13    15    18    1
    14    18    19   ar
    15    19    20   ar
    16    20    21   ar
    17    21    24    1
    18    24    25    1
    19    24    26    1
    20    24    27    1
    21    21    22   ar
    22    22    23   ar
    23    15    16   ar
    24    16    17   ar
    25     1     2   am
    26     2     3    2
    27     2    28    1
    28    28    29    1
    29    29    30   ar
    30    30    31   ar
    31    31    36    1
    32    36    37    1
    33    31    32   ar
    34    32    33    2
    35    32    34   ar
    36    34    35   ar
    37    35    38    1
    38    38    39    1
    39    39    40    1
    40    40    41   ar
    41    41    42   ar
    42    42    43   ar
    43    43    44    1
    44    43    45   ar
    45    45    46   ar
    46    17    12   ar
    47    35    29   ar
    48    46    40   ar
    49    23    18   ar
@<TRIPOS>MOLECULE
*****
 46 49 0 0 0
SMALL
GASTEIGER

@<TRIPOS>ATOM
      1 N          61.5504   87.3317   11.4466 N.am    1  UNL1       -0.2724
      2 C          62.0629   88.4613   12.2901 C.2     1  UNL1        0.2491
      3 O          61.2676   89.7272   12.4119 O.2     1  UNL1       -0.2727
      4 C          62.3459   86.0658   11.3248 C.3     1  UNL1        0.1111
      5 C          62.0082   85.0676   10.2574 C.3     1  UNL1        0.0939
      6 N          63.0605   84.6252    9.2844 N.3     1  UNL1       -0.2712
      7 C          63.6877   82.3994   10.4688 C.3     1  UNL1        0.0188
      8 C          64.0953   83.6231    9.7030 C.3     1  UNL1        0.0722
      9 C          63.0782   85.1848    7.8928 C.3     1  UNL1        0.0722
     10 C          62.1002   84.6850    6.8710 C.3     1  UNL1        0.0188
     11 C          60.2426   87.4681   10.7250 C.3     1  UNL1        0.1202
     12 C          60.1595   88.2878    9.4714 C.ar    1  UNL1       -0.0023
     13 C          60.7675   89.6584    9.4299 C.ar    1  UNL1       -0.0026
     14 C          60.6845   90.4780    8.1764 C.ar    1  UNL1       -0.0003
     15 C          59.9934   89.9271    6.9645 C.ar    1  UNL1       -0.0000
     16 C          59.3854   88.5565    7.0060 C.ar    1  UNL1       -0.0003
     17 C          59.4684   87.7368    8.2595 C.ar    1  UNL1       -0.0026
     18 C          59.9103   90.7468    5.7109 C.ar    1  UNL1       -0.0000
     19 C          61.1490   91.0208    4.9106 C.ar    1  UNL1       -0.0001
     20 C          61.0659   91.8405    3.6570 C.ar    1  UNL1        0.0039
     21 C          59.7442   92.3861    3.2040 C.ar    1  UNL1        0.0714
     22 C          58.5055   92.1121    4.0044 C.ar    1  UNL1        0.0039
     23 C          58.5886   91.2924    5.2579 C.ar    1  UNL1       -0.0001
     24 C          59.6611   93.2058    1.9505 C.3     1  UNL1        0.4186
     25 F          59.5780   94.0255    0.6971 F       1  UNL1       -0.1659
     26 F          59.2193   91.9929    1.1866 F       1  UNL1       -0.1659
     27 F          60.1029   94.4187    2.7144 F       1  UNL1       -0.1659
     28 C          63.3709   88.3249   13.0118 C.3     1  UNL1        0.1934
     29 N          63.9349   89.4906   13.7687 N.ar    1  UNL1       -0.2972
     30 C          64.7992   90.4945   13.0649 C.ar    1  UNL1        0.0888
     31 C          65.3633   91.6602   13.8218 C.ar    1  UNL1        0.1005
     32 C          65.0630   91.8221   15.2826 C.ar    1  UNL1        0.2880
     33 O          65.6271   92.9878   16.0395 O.2     1  UNL1       -0.2645
     34 N          64.1988   90.8182   15.9863 N.ar    1  UNL1       -0.1840
     35 C          63.6348   89.6525   15.2294 C.ar    1  UNL1        0.1751
     36 S          66.2275   92.6641   13.1180 S.3     1  UNL1       -0.1066
     37 C          65.6908   93.4201   11.9388 C.3     1  UNL1        0.0744
     38 S          62.7705   88.6486   15.9332 S.3     1  UNL1       -0.0724
     39 C          63.3988   87.4968   16.6604 C.3     1  UNL1        0.0913
     40 C          63.5552   86.1722   15.9743 C.ar    1  UNL1       -0.0108
     41 C          64.7086   85.9413   15.0435 C.ar    1  UNL1       -0.0011
     42 C          64.8651   84.6166   14.3573 C.ar    1  UNL1        0.0293
     43 C          63.8682   83.5229   14.6019 C.ar    1  UNL1        0.1401
     44 F          64.0246   82.1982   13.9158 F       1  UNL1       -0.2042
     45 C          62.7148   83.7538   15.5328 C.ar    1  UNL1        0.0293
     46 C          62.5583   85.0784   16.2189 C.ar    1  UNL1       -0.0011
@<TRIPOS>BOND
     1     7     8    1
     2     8     6    1
     3     6     9    1
     4     9    10    1
     5     6     5    1
     6     5     4    1
     7     4     1    1
     8     1    11    1
     9    11    12    1
    10    12    13   ar
    11    13    14   ar
    12    14    15   ar
    13    15    18    1
    14    18    19   ar
    15    19    20   ar
    16    20    21   ar
    17    21    24    1
    18    24    25    1
    19    24    26    1
    20    24    27    1
    21    21    22   ar
    22    22    23   ar
    23    15    16   ar
    24    16    17   ar
    25     1     2   am
    26     2     3    2
    27     2    28    1
    28    28    29    1
    29    29    30   ar
    30    30    31   ar
    31    31    36    1
    32    36    37    1
    33    31    32   ar
    34    32    33    2
    35    32    34   ar
    36    34    35   ar
    37    35    38    1
    38    38    39    1
    39    39    40    1
    40    40    41   ar
    41    41    42   ar
    42    42    43   ar
    43    43    44    1
    44    43    45   ar
    45    45    46   ar
    46    17    12   ar
    47    35    29   ar
    48    46    40   ar
    49    23    18   ar
@<TRIPOS>MOLECULE
*****
 46 49 0 0 0
SMALL
GASTEIGER

@<TRIPOS>ATOM
      1 N          61.1803   86.3026   10.5955 N.am    1  UNL1       -0.2724
      2 C          62.0474   85.2553    9.9619 C.2     1  UNL1        0.2491
      3 O          61.6223   84.6055    8.6786 O.2     1  UNL1       -0.2727
      4 C          61.6054   86.9524   11.8789 C.3     1  UNL1        0.1111
      5 C          62.4279   88.2064   11.8482 C.3     1  UNL1        0.0939
      6 N          61.7634   89.5428   11.9976 N.3     1  UNL1       -0.2712
      7 C          59.4216   90.6212   11.6762 C.3     1  UNL1        0.0188
      8 C          60.3091   89.6215   12.3566 C.3     1  UNL1        0.0722
      9 C          62.5533   90.8007   11.7880 C.3     1  UNL1        0.0722
     10 C          63.2027   91.0664   10.4622 C.3     1  UNL1        0.0188
     11 C          59.8881   86.7000    9.9458 C.3     1  UNL1        0.1202
     12 C          59.8887   87.6898    8.8186 C.ar    1  UNL1       -0.0023
     13 C          60.4795   89.0539    9.0186 C.ar    1  UNL1       -0.0026
     14 C          60.4801   90.0435    7.8914 C.ar    1  UNL1       -0.0003
     15 C          59.8898   89.6691    6.5643 C.ar    1  UNL1       -0.0000
     16 C          59.2989   88.3050    6.3643 C.ar    1  UNL1       -0.0003
     17 C          59.2984   87.3153    7.4914 C.ar    1  UNL1       -0.0026
     18 C          59.8904   90.6588    5.4371 C.ar    1  UNL1       -0.0000
     19 C          58.6182   91.3503    5.0455 C.ar    1  UNL1       -0.0001
     20 C          58.6187   92.3400    3.9183 C.ar    1  UNL1        0.0039
     21 C          59.8916   92.6383    3.1827 C.ar    1  UNL1        0.0714
     22 C          61.1638   91.9468    3.5744 C.ar    1  UNL1        0.0039
     23 C          61.1632   90.9571    4.7015 C.ar    1  UNL1       -0.0001
     24 C          59.8922   93.6279    2.0556 C.3     1  UNL1        0.4186
     25 F          59.8928   94.6176    0.9285 F       1  UNL1       -0.1659
     26 F          59.6258   92.5188    1.0816 F       1  UNL1       -0.1659
     27 F          60.1585   94.7371    3.0297 F       1  UNL1       -0.1659
     28 C          63.3396   84.8579   10.6118 C.3     1  UNL1        0.1934
     29 N          63.3860   83.6667   11.5222 N.ar    1  UNL1       -0.2972
     30 C          63.0306   82.3072   10.9973 C.ar    1  UNL1        0.0888
     31 C          63.0770   81.1160   11.9078 C.ar    1  UNL1        0.1005
     32 C          63.4788   81.2844   13.3432 C.ar    1  UNL1        0.2880
     33 O          63.5251   80.0932   14.2537 O.2     1  UNL1       -0.2645
     34 N          63.8342   82.6438   13.8680 N.ar    1  UNL1       -0.1840
     35 C          63.7878   83.8350   12.9576 C.ar    1  UNL1        0.1751
     36 S          62.7215   79.7566   11.3830 S.3     1  UNL1       -0.1066
     37 C          62.8334   79.4663    9.9155 C.3     1  UNL1        0.0744
     38 S          64.1432   85.1945   13.4824 S.3     1  UNL1       -0.0724
     39 C          64.0206   85.4881   14.9483 C.3     1  UNL1        0.0913
     40 C          63.8534   86.9027   15.4184 C.ar    1  UNL1       -0.0108
     41 C          64.3558   88.0373   14.5758 C.ar    1  UNL1       -0.0011
     42 C          64.1886   89.4520   15.0459 C.ar    1  UNL1        0.0293
     43 C          63.5190   89.7319   16.3586 C.ar    1  UNL1        0.1401
     44 F          63.3518   91.1464   16.8287 F       1  UNL1       -0.2042
     45 C          63.0166   88.5971   17.2013 C.ar    1  UNL1        0.0293
     46 C          63.1838   87.1826   16.7312 C.ar    1  UNL1       -0.0011
@<TRIPOS>BOND
     1     7     8    1
     2     8     6    1
     3     6     9    1
     4     9    10    1
     5     6     5    1
     6     5     4    1
     7     4     1    1
     8     1    11    1
     9    11    12    1
    10    12    13   ar
    11    13    14   ar
    12    14    15   ar
    13    15    18    1
    14    18    19   ar
    15    19    20   ar
    16    20    21   ar
    17    21    24    1
    18    24    25    1
    19    24    26    1
    20    24    27    1
    21    21    22   ar
    22    22    23   ar
    23    15    16   ar
    24    16    17   ar
    25     1     2   am
    26     2     3    2
    27     2    28    1
    28    28    29    1
    29    29    30   ar
    30    30    31   ar
    31    31    36    1
    32    36    37    1
    33    31    32   ar
    34    32    33    2
    35    32    34   ar
    36    34    35   ar
    37    35    38    1
    38    38    39    1
    39    39    40    1
    40    40    41   ar
    41    41    42   ar
    42    42    43   ar
    43    43    44    1
    44    43    45   ar
    45    45    46   ar
    46    17    12   ar
    47    35    29   ar
    48    46    40   ar
    49    23    18   ar
@<TRIPOS>MOLECULE
*****
 46 49 0 0 0
SMALL
GASTEIGER

@<TRIPOS>ATOM
      1 N          64.6321   89.7754   14.5758 N.am    1  UNL1       -0.2724
      2 C          63.2475   90.3238   14.3968 C.2     1  UNL1        0.2491
      3 O          62.0702   89.5879   14.9645 O.2     1  UNL1       -0.2727
      4 C          65.8095   90.5114   14.0082 C.3     1  UNL1        0.1111
      5 C          67.0042   90.7936   14.8701 C.3     1  UNL1        0.0939
      6 N          67.2791   92.1926   15.3361 N.3     1  UNL1       -0.2712
      7 C          65.1610   92.3429   16.8332 C.3     1  UNL1        0.0188
      8 C          66.1818   93.0057   15.9565 C.3     1  UNL1        0.0722
      9 C          68.6513   92.7785   15.1819 C.3     1  UNL1        0.0722
     10 C          69.0476   93.9818   15.9850 C.3     1  UNL1        0.0188
     11 C          64.8394   88.4910   15.3224 C.3     1  UNL1        0.1202
     12 C          64.5359   87.1804   14.6589 C.ar    1  UNL1       -0.0023
     13 C          63.6742   87.1428   13.4318 C.ar    1  UNL1       -0.0026
     14 C          63.3706   85.8322   12.7683 C.ar    1  UNL1       -0.0003
     15 C          63.9288   84.5592   13.3321 C.ar    1  UNL1       -0.0000
     16 C          64.7905   84.5968   14.5593 C.ar    1  UNL1       -0.0003
     17 C          65.0940   85.9073   15.2227 C.ar    1  UNL1       -0.0026
     18 C          63.6253   83.2485   12.6686 C.ar    1  UNL1       -0.0000
     19 C          63.1182   82.0954   13.4829 C.ar    1  UNL1       -0.0001
     20 C          62.8147   80.7847   12.8194 C.ar    1  UNL1        0.0039
     21 C          63.0182   80.6273   11.3416 C.ar    1  UNL1        0.0714
     22 C          63.5252   81.7806   10.5273 C.ar    1  UNL1        0.0039
     23 C          63.8288   83.0912   11.1908 C.ar    1  UNL1       -0.0001
     24 C          62.7146   79.3168   10.6781 C.3     1  UNL1        0.4186
     25 F          62.4111   78.0062   10.0146 F       1  UNL1       -0.1659
     26 F          62.4096   78.7103   12.0157 F       1  UNL1       -0.1659
     27 F          63.0197   79.9233    9.3406 F       1  UNL1       -0.1659
     28 C          63.0402   91.6082   13.6502 C.3     1  UNL1        0.1934
     29 N          63.9604   91.9784   12.5249 N.ar    1  UNL1       -0.2972
     30 C          64.9091   93.1299   12.6797 C.ar    1  UNL1        0.0888
     31 C          65.8293   93.5001   11.5544 C.ar    1  UNL1        0.1005
     32 C          65.8006   92.7188   10.2743 C.ar    1  UNL1        0.2880
     33 O          66.7207   93.0890    9.1489 O.2     1  UNL1       -0.2645
     34 N          64.8519   91.5673   10.1194 N.ar    1  UNL1       -0.1840
     35 C          63.9318   91.1971   11.2448 C.ar    1  UNL1        0.1751
     36 S          66.7780   94.6516   11.7092 S.3     1  UNL1       -0.1066
     37 C          66.5758   95.9030   10.9073 C.3     1  UNL1        0.0744
     38 S          62.9830   90.0457   11.0899 S.3     1  UNL1       -0.0724
     39 C          61.8126   90.1582   10.1585 C.3     1  UNL1        0.0913
     40 C          61.3057   88.9426    9.4407 C.ar    1  UNL1       -0.0108
     41 C          60.1038   89.0448    8.5492 C.ar    1  UNL1       -0.0011
     42 C          59.5968   87.8291    7.8313 C.ar    1  UNL1        0.0293
     43 C          60.2918   86.5113    8.0052 C.ar    1  UNL1        0.1401
     44 F          59.7849   85.2956    7.2874 F       1  UNL1       -0.2042
     45 C          61.4938   86.4091    8.8968 C.ar    1  UNL1        0.0293
     46 C          62.0007   87.6247    9.6145 C.ar    1  UNL1       -0.0011
@<TRIPOS>BOND
     1     7     8    1
     2     8     6    1
     3     6     9    1
     4     9    10    1
     5     6     5    1
     6     5     4    1
     7     4     1    1
     8     1    11    1
     9    11    12    1
    10    12    13   ar
    11    13    14   ar
    12    14    15   ar
    13    15    18    1
    14    18    19   ar
    15    19    20   ar
    16    20    21   ar
    17    21    24    1
    18    24    25    1
    19    24    26    1
    20    24    27    1
    21    21    22   ar
    22    22    23   ar
    23    15    16   ar
    24    16    17   ar
    25     1     2   am
    26     2     3    2
    27     2    28    1
    28    28    29    1
    29    29    30   ar
    30    30    31   ar
    31    31    36    1
    32    36    37    1
    33    31    32   ar
    34    32    33    2
    35    32    34   ar
    36    34    35   ar
    37    35    38    1
    38    38    39    1
    39    39    40    1
    40    40    41   ar
    41    41    42   ar
    42    42    43   ar
    43    43    44    1
    44    43    45   ar
    45    45    46   ar
    46    17    12   ar
    47    35    29   ar
    48    46    40   ar
    49    23    18   ar
@<TRIPOS>MOLECULE
*****
 46 49 0 0 0
SMALL
GASTEIGER

@<TRIPOS>ATOM
      1 N          60.8097   87.6274   10.6086 N.am    1  UNL1       -0.2724
      2 C          61.3771   88.6411   11.5574 C.2     1  UNL1        0.2491
      3 O          60.7532   90.0011   11.6632 O.2     1  UNL1       -0.2727
      4 C          61.4337   86.2673   10.5028 C.3     1  UNL1        0.1111
      5 C          61.4450   85.5476    9.1869 C.3     1  UNL1        0.0939
      6 N          62.7047   84.8952    8.6997 N.3     1  UNL1       -0.2712
      7 C          61.7654   84.5674    6.2997 C.3     1  UNL1        0.0188
      8 C          62.9341   84.7121    7.2287 C.3     1  UNL1        0.0722
      9 C          63.7351   84.4258    9.6836 C.3     1  UNL1        0.0722
     10 C          63.8268   82.9708   10.0369 C.3     1  UNL1        0.0188
     11 C          59.6184   87.9736    9.7655 C.3     1  UNL1        0.1202
     12 C          59.7935   88.7889    8.5185 C.ar    1  UNL1       -0.0023
     13 C          58.9116   88.5413    7.3307 C.ar    1  UNL1       -0.0026
     14 C          59.0867   89.3566    6.0839 C.ar    1  UNL1       -0.0003
     15 C          60.1436   90.4194    6.0249 C.ar    1  UNL1       -0.0000
     16 C          61.0254   90.6669    7.2127 C.ar    1  UNL1       -0.0003
     17 C          60.8503   89.8516    8.4596 C.ar    1  UNL1       -0.0026
     18 C          60.3186   91.2347    4.7780 C.ar    1  UNL1       -0.0000
     19 C          59.1456   91.9550    4.1820 C.ar    1  UNL1       -0.0001
     20 C          59.3206   92.7702    2.9351 C.ar    1  UNL1        0.0039
     21 C          60.6687   92.8652    2.2842 C.ar    1  UNL1        0.0714
     22 C          61.8417   92.1449    2.8802 C.ar    1  UNL1        0.0039
     23 C          61.6667   91.3297    4.1271 C.ar    1  UNL1       -0.0001
     24 C          60.8437   93.6805    1.0373 C.3     1  UNL1        0.4186
     25 F          61.0188   94.4957   -0.2095 F       1  UNL1       -0.1659
     26 F          60.8598   94.9348    1.8597 F       1  UNL1       -0.1659
     27 F          60.8277   92.4262    0.2150 F       1  UNL1       -0.1659
     28 C          62.5685   88.2949   12.4006 C.3     1  UNL1        0.1934
     29 N          63.5279   89.3688   12.8203 N.ar    1  UNL1       -0.2972
     30 C          63.7951   90.5325   11.9122 C.ar    1  UNL1        0.0888
     31 C          64.7545   91.6065   12.3319 C.ar    1  UNL1        0.1005
     32 C          65.4468   91.5168   13.6596 C.ar    1  UNL1        0.2880
     33 O          66.4062   92.5907   14.0793 O.2     1  UNL1       -0.2645
     34 N          65.1796   90.3531   14.5676 N.ar    1  UNL1       -0.1840
     35 C          64.2202   89.2791   14.1479 C.ar    1  UNL1        0.1751
     36 S          65.0217   92.7702   11.4239 S.3     1  UNL1       -0.1066
     37 C          66.2285   92.7647   10.5330 C.3     1  UNL1        0.0744
     38 S          63.9530   88.1155   15.0559 S.3     1  UNL1       -0.0724
     39 C          64.7621   86.8594   14.9232 C.3     1  UNL1        0.0913
     40 C          64.0735   85.5303   14.8266 C.ar    1  UNL1       -0.0108
     41 C          62.9879   85.1758   15.7991 C.ar    1  UNL1       -0.0011
     42 C          62.2991   83.8467   15.7025 C.ar    1  UNL1        0.0293
     43 C          62.6961   82.8722   14.6335 C.ar    1  UNL1        0.1401
     44 F          62.0075   81.5431   14.5369 F       1  UNL1       -0.2042
     45 C          63.7818   83.2268   13.6610 C.ar    1  UNL1        0.0293
     46 C          64.4705   84.5558   13.7576 C.ar    1  UNL1       -0.0011
@<TRIPOS>BOND
     1     7     8    1
     2     8     6    1
     3     6     9    1
     4     9    10    1
     5     6     5    1
     6     5     4    1
     7     4     1    1
     8     1    11    1
     9    11    12    1
    10    12    13   ar
    11    13    14   ar
    12    14    15   ar
    13    15    18    1
    14    18    19   ar
    15    19    20   ar
    16    20    21   ar
    17    21    24    1
    18    24    25    1
    19    24    26    1
    20    24    27    1
    21    21    22   ar
    22    22    23   ar
    23    15    16   ar
    24    16    17   ar
    25     1     2   am
    26     2     3    2
    27     2    28    1
    28    28    29    1
    29    29    30   ar
    30    30    31   ar
    31    31    36    1
    32    36    37    1
    33    31    32   ar
    34    32    33    2
    35    32    34   ar
    36    34    35   ar
    37    35    38    1
    38    38    39    1
    39    39    40    1
    40    40    41   ar
    41    41    42   ar
    42    42    43   ar
    43    43    44    1
    44    43    45   ar
    45    45    46   ar
    46    17    12   ar
    47    35    29   ar
    48    46    40   ar
    49    23    18   ar
@<TRIPOS>MOLECULE
*****
 46 49 0 0 0
SMALL
GASTEIGER

@<TRIPOS>ATOM
      1 N          60.9955   88.4816   10.2476 N.am    1  UNL1       -0.2724
      2 C          61.9584   87.3315   10.2614 C.2     1  UNL1        0.2491
      3 O          63.4233   87.5774   10.0531 O.2     1  UNL1       -0.2727
      4 C          59.5304   88.2357   10.4559 C.3     1  UNL1        0.1111
      5 C          58.6494   87.9169    9.2845 C.3     1  UNL1        0.0939
      6 N          59.2528   87.7088    7.9271 N.3     1  UNL1       -0.2712
      7 C          58.7888   89.6749    6.2933 C.3     1  UNL1        0.0188
      8 C          59.7450   88.8848    7.1367 C.3     1  UNL1        0.0722
      9 C          59.3638   86.3246    7.3599 C.3     1  UNL1        0.0722
     10 C          60.7106   85.6811    7.2105 C.3     1  UNL1        0.0188
     11 C          61.4975   89.8775   10.0254 C.3     1  UNL1        0.1202
     12 C          62.5818   90.4327   10.9006 C.ar    1  UNL1       -0.0023
     13 C          62.6194   90.0860   12.3595 C.ar    1  UNL1       -0.0026
     14 C          63.7037   90.6413   13.2346 C.ar    1  UNL1       -0.0003
     15 C          64.7505   91.5433   12.6508 C.ar    1  UNL1       -0.0000
     16 C          64.7129   91.8900   11.1920 C.ar    1  UNL1       -0.0003
     17 C          63.6286   91.3347   10.3169 C.ar    1  UNL1       -0.0026
     18 C          65.8349   92.0985   13.5260 C.ar    1  UNL1       -0.0000
     19 C          66.1755   93.5580   13.4635 C.ar    1  UNL1       -0.0001
     20 C          67.2599   94.1132   14.3387 C.ar    1  UNL1        0.0039
     21 C          68.0035   93.2090   15.2764 C.ar    1  UNL1        0.0714
     22 C          67.6628   91.7495   15.3390 C.ar    1  UNL1        0.0039
     23 C          66.5785   91.1943   14.4638 C.ar    1  UNL1       -0.0001
     24 C          69.0879   93.7642   16.1516 C.3     1  UNL1        0.4186
     25 F          70.1722   94.3194   17.0268 F       1  UNL1       -0.1659
     26 F          69.4311   92.3767   16.6065 F       1  UNL1       -0.1659
     27 F          68.7446   95.1517   15.6967 F       1  UNL1       -0.1659
     28 C          61.4563   85.9356   10.4836 C.3     1  UNL1        0.1934
     29 N          62.3533   84.9058   11.1041 N.ar    1  UNL1       -0.2972
     30 C          62.4124   83.5203   10.5322 C.ar    1  UNL1        0.0888
     31 C          63.3094   82.4905   11.1527 C.ar    1  UNL1        0.1005
     32 C          64.1473   82.8463   12.3450 C.ar    1  UNL1        0.2880
     33 O          65.0442   81.8165   12.9655 O.2     1  UNL1       -0.2645
     34 N          64.0881   84.2317   12.9168 N.ar    1  UNL1       -0.1840
     35 C          63.1911   85.2615   12.2963 C.ar    1  UNL1        0.1751
     36 S          63.3686   81.1051   10.5809 S.3     1  UNL1       -0.1066
     37 C          62.7973   79.9511   11.3503 C.3     1  UNL1        0.0744
     38 S          63.1319   86.6469   12.8681 S.3     1  UNL1       -0.0724
     39 C          64.1072   87.0627   13.9292 C.3     1  UNL1        0.0913
     40 C          63.6822   87.0955   15.3673 C.ar    1  UNL1       -0.0108
     41 C          63.4608   88.4105   16.0541 C.ar    1  UNL1       -0.0011
     42 C          63.0357   88.4434   17.4923 C.ar    1  UNL1        0.0293
     43 C          62.8321   87.1612   18.2436 C.ar    1  UNL1        0.1401
     44 F          62.4071   87.1940   19.6818 F       1  UNL1       -0.2042
     45 C          63.0536   85.8461   17.5568 C.ar    1  UNL1        0.0293
     46 C          63.4786   85.8133   16.1187 C.ar    1  UNL1       -0.0011
@<TRIPOS>BOND
     1     7     8    1
     2     8     6    1
     3     6     9    1
     4     9    10    1
     5     6     5    1
     6     5     4    1
     7     4     1    1
     8     1    11    1
     9    11    12    1
    10    12    13   ar
    11    13    14   ar
    12    14    15   ar
    13    15    18    1
    14    18    19   ar
    15    19    20   ar
    16    20    21   ar
    17    21    24    1
    18    24    25    1
    19    24    26    1
    20    24    27    1
    21    21    22   ar
    22    22    23   ar
    23    15    16   ar
    24    16    17   ar
    25     1     2   am
    26     2     3    2
    27     2    28    1
    28    28    29    1
    29    29    30   ar
    30    30    31   ar
    31    31    36    1
    32    36    37    1
    33    31    32   ar
    34    32    33    2
    35    32    34   ar
    36    34    35   ar
    37    35    38    1
    38    38    39    1
    39    39    40    1
    40    40    41   ar
    41    41    42   ar
    42    42    43   ar
    43    43    44    1
    44    43    45   ar
    45    45    46   ar
    46    17    12   ar
    47    35    29   ar
    48    46    40   ar
    49    23    18   ar
@<TRIPOS>MOLECULE
*****
 46 49 0 0 0
SMALL
GASTEIGER

@<TRIPOS>ATOM
      1 N          62.0155   87.1221   10.3337 N.am    1  UNL1       -0.2724
      2 C          61.8019   85.9163   11.2000 C.2     1  UNL1        0.2491
      3 O          61.2767   86.0790   12.5955 O.2     1  UNL1       -0.2727
      4 C          62.5408   86.9594    8.9380 C.3     1  UNL1        0.1111
      5 C          62.3349   85.6669    8.2052 C.3     1  UNL1        0.0939
      6 N          61.0533   85.4198    7.4660 N.3     1  UNL1       -0.2712
      7 C          62.2485   84.3325    5.4314 C.3     1  UNL1        0.0188
      8 C          61.0314   84.4822    6.2953 C.3     1  UNL1        0.0722
      9 C          59.7935   86.1104    7.8975 C.3     1  UNL1        0.0722
     10 C          59.3403   87.3538    7.1914 C.3     1  UNL1        0.0188
     11 C          61.7038   88.4906   10.8629 C.3     1  UNL1        0.1202
     12 C          62.7455   89.2554   11.6246 C.ar    1  UNL1       -0.0023
     13 C          63.3257   88.6824   12.8835 C.ar    1  UNL1       -0.0026
     14 C          64.3673   89.4471   13.6451 C.ar    1  UNL1       -0.0003
     15 C          64.8287   90.7849   13.1477 C.ar    1  UNL1       -0.0000
     16 C          64.2486   91.3580   11.8888 C.ar    1  UNL1       -0.0003
     17 C          63.2069   90.5932   11.1272 C.ar    1  UNL1       -0.0026
     18 C          65.8704   91.5497   13.9094 C.ar    1  UNL1       -0.0000
     19 C          65.5995   91.9862   15.3187 C.ar    1  UNL1       -0.0001
     20 C          66.6412   92.7510   16.0803 C.ar    1  UNL1        0.0039
     21 C          67.9538   93.0793   15.4327 C.ar    1  UNL1        0.0714
     22 C          68.2246   92.6428   14.0233 C.ar    1  UNL1        0.0039
     23 C          67.1830   91.8780   13.2617 C.ar    1  UNL1       -0.0001
     24 C          68.9954   93.8441   16.1943 C.3     1  UNL1        0.4186
     25 F          70.0371   94.6088   16.9558 F       1  UNL1       -0.1659
     26 F          68.4676   95.1282   15.6267 F       1  UNL1       -0.1659
     27 F          69.5233   92.5599   16.7618 F       1  UNL1       -0.1659
     28 C          62.1136   84.5478   10.6707 C.3     1  UNL1        0.1934
     29 N          62.6470   83.4909   11.5918 N.ar    1  UNL1       -0.2972
     30 C          62.3506   82.0448   11.3255 C.ar    1  UNL1        0.0888
     31 C          62.8840   80.9879   12.2466 C.ar    1  UNL1        0.1005
     32 C          63.7136   81.3772   13.4342 C.ar    1  UNL1        0.2880
     33 O          64.2469   80.3203   14.3554 O.2     1  UNL1       -0.2645
     34 N          64.0099   82.8233   13.7005 N.ar    1  UNL1       -0.1840
     35 C          63.4765   83.8802   12.7794 C.ar    1  UNL1        0.1751
     36 S          62.5877   79.5418   11.9803 S.3     1  UNL1       -0.1066
     37 C          62.8033   78.9721   10.6095 C.3     1  UNL1        0.0744
     38 S          63.7728   85.3263   13.0457 S.3     1  UNL1       -0.0724
     39 C          64.6341   85.7131   14.2113 C.3     1  UNL1        0.0913
     40 C          64.0014   86.1095   15.5123 C.ar    1  UNL1       -0.0108
     41 C          63.4985   85.0554   16.4536 C.ar    1  UNL1       -0.0011
     42 C          62.8659   85.4517   17.7547 C.ar    1  UNL1        0.0293
     43 C          62.7362   86.9022   18.1144 C.ar    1  UNL1        0.1401
     44 F          62.1036   87.2985   19.4154 F       1  UNL1       -0.2042
     45 C          63.2391   87.9563   17.1731 C.ar    1  UNL1        0.0293
     46 C          63.8717   87.5599   15.8721 C.ar    1  UNL1       -0.0011
@<TRIPOS>BOND
     1     7     8    1
     2     8     6    1
     3     6     9    1
     4     9    10    1
     5     6     5    1
     6     5     4    1
     7     4     1    1
     8     1    11    1
     9    11    12    1
    10    12    13   ar
    11    13    14   ar
    12    14    15   ar
    13    15    18    1
    14    18    19   ar
    15    19    20   ar
    16    20    21   ar
    17    21    24    1
    18    24    25    1
    19    24    26    1
    20    24    27    1
    21    21    22   ar
    22    22    23   ar
    23    15    16   ar
    24    16    17   ar
    25     1     2   am
    26     2     3    2
    27     2    28    1
    28    28    29    1
    29    29    30   ar
    30    30    31   ar
    31    31    36    1
    32    36    37    1
    33    31    32   ar
    34    32    33    2
    35    32    34   ar
    36    34    35   ar
    37    35    38    1
    38    38    39    1
    39    39    40    1
    40    40    41   ar
    41    41    42   ar
    42    42    43   ar
    43    43    44    1
    44    43    45   ar
    45    45    46   ar
    46    17    12   ar
    47    35    29   ar
    48    46    40   ar
    49    23    18   ar
