@<TRIPOS>MOLECULE
*****
 33 38 0 0 0
SMALL
GASTEIGER

@<TRIPOS>ATOM
      1 O          64.5668   90.4214   15.5290 O.2     1  UNL1       -0.2463
      2 C          64.9368   91.3370   14.3999 C.ar    1  UNL1        0.3316
      3 N          65.8245   92.5422   14.4967 N.ar    1  UNL1       -0.2774
      4 C          65.9203   93.1581   13.1323 C.ar    1  UNL1        0.0798
      5 C          66.6549   94.3633   12.6245 C.ar    1  UNL1        0.0188
      6 C          66.5609   94.7438   11.1766 C.ar    1  UNL1        0.0016
      7 C          65.7324   93.9193   10.2366 C.ar    1  UNL1        0.0016
      8 C          64.9978   92.7141   10.7444 C.ar    1  UNL1        0.0188
      9 C          65.0917   92.3336   12.1923 C.ar    1  UNL1        0.0796
     10 N          64.4839   91.2080   12.9757 N.ar    1  UNL1       -0.2817
     11 C          63.5816   90.1409   12.4306 C.3     1  UNL1        0.0926
     12 C          62.5074   90.4976   11.4464 C.3     1  UNL1        0.0401
     13 C          61.6052   89.4305   10.9013 C.3     1  UNL1        0.0740
     14 N          61.7771   88.0065   11.3404 N.3     1  UNL1       -0.2726
     15 C          62.8513   87.6497   12.3246 C.3     1  UNL1        0.0740
     16 C          63.7536   88.7169   12.8697 C.3     1  UNL1        0.0401
     17 C          60.8748   86.9394   10.7953 C.3     1  UNL1        0.0720
     18 C          61.1693   86.3169    9.4628 C.3     1  UNL1        0.0160
     19 C          62.4226   85.5812    9.0909 C.3     1  UNL1        0.0013
     20 C          63.1152   84.8480    7.9808 C.3     1  UNL1        0.0000
     21 C          62.2081   84.8517    6.7861 C.3     1  UNL1        0.0000
     22 C          60.9549   85.5874    7.1580 C.3     1  UNL1        0.0000
     23 C          62.2901   85.1304    7.6665 C.3     1  UNL1        0.0000
     24 C          60.2623   86.3206    8.2681 C.3     1  UNL1        0.0013
     25 C          59.1500   87.0891    8.9181 C.3     1  UNL1        0.0000
     26 C          59.0175   86.6382    7.4937 C.3     1  UNL1        0.0000
     27 C          66.4981   93.0435   15.7396 C.3     1  UNL1        0.1422
     28 C          67.9850   93.2415   15.7590 C.3     1  UNL1        0.1623
     29 O          68.5638   94.5272   16.2709 O.3     1  UNL1       -0.3799
     30 H          67.8456   95.1175   16.5477 H       1  UNL1        0.2105
     31 C          68.8929   92.1538   15.2666 C.3     1  UNL1        0.1683
     32 O          69.2688   92.0901   13.8159 O.3     1  UNL1       -0.3794
     33 H          68.4801   91.8957   13.2857 H       1  UNL1        0.2105
@<TRIPOS>BOND
     1     1     2    2
     2     2     3   ar
     3     3    27    1
     4    27    28    1
     5    28    29    1
     6    28    31    1
     7    31    32    1
     8     3     4   ar
     9     4     5   ar
    10     5     6   ar
    11     6     7   ar
    12     7     8   ar
    13     8     9   ar
    14     9    10   ar
    15    10    11    1
    16    11    12    1
    17    12    13    1
    18    13    14    1
    19    14    17    1
    20    18    17    1
    21    18    19    1
    22    19    20    1
    23    20    21    1
    24    22    21    1
    25    22    23    1
    26    22    24    1
    27    24    25    1
    28    25    26    1
    29    14    15    1
    30    15    16    1
    31    10     2   ar
    32    16    11    1
    33     9     4   ar
    34    24    18    1
    35    23    19    1
    36    26    24    1
    37    29    30    1
    38    32    33    1
@<TRIPOS>MOLECULE
*****
 33 38 0 0 0
SMALL
GASTEIGER

@<TRIPOS>ATOM
      1 O          64.5908   93.2201    9.8078 O.2     1  UNL1       -0.2463
      2 C          65.0918   93.0446   11.2107 C.ar    1  UNL1        0.3316
      3 N          66.0095   93.9785   11.9426 N.ar    1  UNL1       -0.2774
      4 C          66.2479   93.4155   13.3123 C.ar    1  UNL1        0.0798
      5 C          67.0670   93.9045   14.4699 C.ar    1  UNL1        0.0188
      6 C          67.1157   93.1115   15.7422 C.ar    1  UNL1        0.0016
      7 C          66.3454   91.8295   15.8569 C.ar    1  UNL1        0.0016
      8 C          65.5264   91.3405   14.6993 C.ar    1  UNL1        0.0188
      9 C          65.4777   92.1335   13.4270 C.ar    1  UNL1        0.0796
     10 N          64.7632   91.9043   12.1282 N.ar    1  UNL1       -0.2817
     11 C          63.8758   90.7392   11.8038 C.3     1  UNL1        0.0926
     12 C          63.0580   90.7466   10.5464 C.3     1  UNL1        0.0401
     13 C          62.1706   89.5815   10.2219 C.3     1  UNL1        0.0740
     14 N          62.1010   88.4091   11.1550 N.3     1  UNL1       -0.2726
     15 C          62.9187   88.4017   12.4124 C.3     1  UNL1        0.0740
     16 C          63.8061   89.5668   12.7369 C.3     1  UNL1        0.0401
     17 C          61.2136   87.2441   10.8306 C.3     1  UNL1        0.0720
     18 C          61.3692   86.5237    9.5241 C.3     1  UNL1        0.0160
     19 C          62.5598   85.7164    9.0988 C.3     1  UNL1        0.0013
     20 C          63.1276   84.8846    7.9872 C.3     1  UNL1        0.0000
     21 C          62.1200   84.8450    6.8767 C.3     1  UNL1        0.0000
     22 C          60.9294   85.6524    7.3020 C.3     1  UNL1        0.0000
     23 C          62.2880   85.1778    7.7255 C.3     1  UNL1        0.0000
     24 C          60.3616   86.4841    8.4137 C.3     1  UNL1        0.0013
     25 C          59.3369   87.3370    9.1012 C.3     1  UNL1        0.0000
     26 C          59.0651   86.7984    7.7278 C.3     1  UNL1        0.0000
     27 C          66.5873   95.2520   11.4000 C.3     1  UNL1        0.1422
     28 C          66.6293   95.4853    9.9188 C.3     1  UNL1        0.1623
     29 O          65.4766   96.1561    9.2322 O.3     1  UNL1       -0.3799
     30 H          64.7928   96.3725    9.8853 H       1  UNL1        0.2105
     31 C          67.8239   95.0478    9.1242 C.3     1  UNL1        0.1683
     32 O          68.7076   93.9514    9.6408 O.3     1  UNL1       -0.3794
     33 H          69.1511   94.2482   10.4508 H       1  UNL1        0.2105
@<TRIPOS>BOND
     1     1     2    2
     2     2     3   ar
     3     3    27    1
     4    27    28    1
     5    28    29    1
     6    28    31    1
     7    31    32    1
     8     3     4   ar
     9     4     5   ar
    10     5     6   ar
    11     6     7   ar
    12     7     8   ar
    13     8     9   ar
    14     9    10   ar
    15    10    11    1
    16    11    12    1
    17    12    13    1
    18    13    14    1
    19    14    17    1
    20    18    17    1
    21    18    19    1
    22    19    20    1
    23    20    21    1
    24    22    21    1
    25    22    23    1
    26    22    24    1
    27    24    25    1
    28    25    26    1
    29    14    15    1
    30    15    16    1
    31    10     2   ar
    32    16    11    1
    33     9     4   ar
    34    24    18    1
    35    23    19    1
    36    26    24    1
    37    29    30    1
    38    32    33    1
@<TRIPOS>MOLECULE
*****
 33 38 0 0 0
SMALL
GASTEIGER

@<TRIPOS>ATOM
      1 O          64.5368   93.1772   10.0422 O.2     1  UNL1       -0.2463
      2 C          65.1206   93.0382   11.4169 C.ar    1  UNL1        0.3316
      3 N          66.0059   94.0354   12.1038 N.ar    1  UNL1       -0.2774
      4 C          66.3541   93.4912   13.4575 C.ar    1  UNL1        0.0798
      5 C          67.1948   94.0376   14.5731 C.ar    1  UNL1        0.0188
      6 C          67.3653   93.2504   15.8385 C.ar    1  UNL1        0.0016
      7 C          66.6952   91.9168   15.9883 C.ar    1  UNL1        0.0016
      8 C          65.8546   91.3704   14.8727 C.ar    1  UNL1        0.0188
      9 C          65.6840   92.1575   13.6073 C.ar    1  UNL1        0.0796
     10 N          64.9217   91.8776   12.3461 N.ar    1  UNL1       -0.2817
     11 C          64.1040   90.6522   12.0638 C.3     1  UNL1        0.0926
     12 C          64.1163   89.5037   13.0283 C.3     1  UNL1        0.0401
     13 C          63.2986   88.2782   12.7460 C.3     1  UNL1        0.0740
     14 N          62.4685   88.2014   11.4990 N.3     1  UNL1       -0.2726
     15 C          62.4561   89.3500   10.5343 C.3     1  UNL1        0.0740
     16 C          63.2738   90.5754   10.8167 C.3     1  UNL1        0.0401
     17 C          61.6507   86.9760   11.2167 C.3     1  UNL1        0.0720
     18 C          62.3301   85.6625   10.9652 C.3     1  UNL1        0.0160
     19 C          62.6959   84.6457   12.0056 C.3     1  UNL1        0.0013
     20 C          63.3292   83.3030   12.2202 C.3     1  UNL1        0.0000
     21 C          63.7620   82.7758   10.8843 C.3     1  UNL1        0.0000
     22 C          63.3962   83.7926    9.8440 C.3     1  UNL1        0.0000
     23 C          63.3548   83.4900   11.3126 C.3     1  UNL1        0.0000
     24 C          62.7629   85.1353    9.6293 C.3     1  UNL1        0.0013
     25 C          62.2858   86.3139    8.8335 C.3     1  UNL1        0.0000
     26 C          62.9447   85.1582    8.1406 C.3     1  UNL1        0.0000
     27 C          66.4629   95.3467   11.5366 C.3     1  UNL1        0.1422
     28 C          66.3576   95.6037   10.0624 C.3     1  UNL1        0.1623
     29 O          65.0568   96.0608    9.4717 O.3     1  UNL1       -0.3799
     30 H          64.3926   96.1393   10.1743 H       1  UNL1        0.2105
     31 C          67.5533   95.4035    9.1790 C.3     1  UNL1        0.1683
     32 O          67.9213   96.4479    8.1672 O.3     1  UNL1       -0.3794
     33 H          67.2275   96.5022    7.4915 H       1  UNL1        0.2105
@<TRIPOS>BOND
     1     1     2    2
     2     2     3   ar
     3     3    27    1
     4    27    28    1
     5    28    29    1
     6    28    31    1
     7    31    32    1
     8     3     4   ar
     9     4     5   ar
    10     5     6   ar
    11     6     7   ar
    12     7     8   ar
    13     8     9   ar
    14     9    10   ar
    15    10    11    1
    16    11    12    1
    17    12    13    1
    18    13    14    1
    19    14    17    1
    20    18    17    1
    21    18    19    1
    22    19    20    1
    23    20    21    1
    24    22    21    1
    25    22    23    1
    26    22    24    1
    27    24    25    1
    28    25    26    1
    29    14    15    1
    30    15    16    1
    31    10     2   ar
    32    16    11    1
    33     9     4   ar
    34    24    18    1
    35    23    19    1
    36    26    24    1
    37    29    30    1
    38    32    33    1
@<TRIPOS>MOLECULE
*****
 33 38 0 0 0
SMALL
GASTEIGER

@<TRIPOS>ATOM
      1 O          64.2591   92.5277   10.0388 O.2     1  UNL1       -0.2463
      2 C          64.9066   92.5841   11.3907 C.ar    1  UNL1        0.3316
      3 N          65.7434   93.7104   11.9212 N.ar    1  UNL1       -0.2774
      4 C          66.1850   93.3466   13.3077 C.ar    1  UNL1        0.0798
      5 C          67.0277   94.0710   14.3152 C.ar    1  UNL1        0.0188
      6 C          67.3066   93.4443   15.6491 C.ar    1  UNL1        0.0016
      7 C          66.7428   92.0932   15.9756 C.ar    1  UNL1        0.0016
      8 C          65.9002   91.3688   14.9682 C.ar    1  UNL1        0.0188
      9 C          65.6213   91.9954   13.6342 C.ar    1  UNL1        0.0796
     10 N          64.8312   91.5243   12.4494 N.ar    1  UNL1       -0.2817
     11 C          64.0949   90.2218   12.3422 C.3     1  UNL1        0.0926
     12 C          64.2851   89.1643   13.3887 C.3     1  UNL1        0.0401
     13 C          63.5488   87.8618   13.2815 C.3     1  UNL1        0.0740
     14 N          62.6222   87.6169   12.1277 N.3     1  UNL1       -0.2726
     15 C          62.4319   88.6744   11.0811 C.3     1  UNL1        0.0740
     16 C          63.1682   89.9769   11.1883 C.3     1  UNL1        0.0401
     17 C          61.8859   86.3144   12.0205 C.3     1  UNL1        0.0720
     18 C          62.6173   85.0710   11.6094 C.3     1  UNL1        0.0160
     19 C          63.0963   84.7467   10.2254 C.3     1  UNL1        0.0013
     20 C          63.8107   83.7195    9.3982 C.3     1  UNL1        0.0000
     21 C          64.1915   82.5821   10.2989 C.3     1  UNL1        0.0000
     22 C          63.7124   82.9064   11.6829 C.3     1  UNL1        0.0000
     23 C          63.7732   83.4089   10.2708 C.3     1  UNL1        0.0000
     24 C          62.9981   83.9337   12.5102 C.3     1  UNL1        0.0013
     25 C          62.4139   84.5215   13.7605 C.3     1  UNL1        0.0000
     26 C          63.0908   83.1836   13.8059 C.3     1  UNL1        0.0000
     27 C          66.0795   94.9780   11.1929 C.3     1  UNL1        0.1422
     28 C          67.0570   94.9528   10.0554 C.3     1  UNL1        0.1623
     29 O          68.0904   93.8683    9.9784 O.3     1  UNL1       -0.3799
     30 H          67.9887   93.2705   10.7355 H       1  UNL1        0.2105
     31 C          67.0011   96.0122    8.9949 C.3     1  UNL1        0.1683
     32 O          66.0352   95.8817    7.8547 O.3     1  UNL1       -0.3794
     33 H          66.2806   95.1183    7.3089 H       1  UNL1        0.2105
@<TRIPOS>BOND
     1     1     2    2
     2     2     3   ar
     3     3    27    1
     4    27    28    1
     5    28    29    1
     6    28    31    1
     7    31    32    1
     8     3     4   ar
     9     4     5   ar
    10     5     6   ar
    11     6     7   ar
    12     7     8   ar
    13     8     9   ar
    14     9    10   ar
    15    10    11    1
    16    11    12    1
    17    12    13    1
    18    13    14    1
    19    14    17    1
    20    18    17    1
    21    18    19    1
    22    19    20    1
    23    20    21    1
    24    22    21    1
    25    22    23    1
    26    22    24    1
    27    24    25    1
    28    25    26    1
    29    14    15    1
    30    15    16    1
    31    10     2   ar
    32    16    11    1
    33     9     4   ar
    34    24    18    1
    35    23    19    1
    36    26    24    1
    37    29    30    1
    38    32    33    1
@<TRIPOS>MOLECULE
*****
 33 38 0 0 0
SMALL
GASTEIGER

@<TRIPOS>ATOM
      1 O          65.0438   90.9761   15.4552 O.2     1  UNL1       -0.2463
      2 C          65.2709   91.8158   14.2332 C.ar    1  UNL1        0.3316
      3 N          66.0087   93.1209   14.1848 N.ar    1  UNL1       -0.2774
      4 C          65.9939   93.6095   12.7667 C.ar    1  UNL1        0.0798
      5 C          66.5641   94.8383   12.1225 C.ar    1  UNL1        0.0188
      6 C          66.3872   95.0639   10.6502 C.ar    1  UNL1        0.0016
      7 C          65.6403   94.0608    9.8221 C.ar    1  UNL1        0.0016
      8 C          65.0701   92.8320   10.4663 C.ar    1  UNL1        0.0188
      9 C          65.2469   92.6064   11.9386 C.ar    1  UNL1        0.0796
     10 N          64.8001   91.4978   12.8449 N.ar    1  UNL1       -0.2817
     11 C          64.0195   90.2843   12.4349 C.3     1  UNL1        0.0926
     12 C          63.1541   90.3275   11.2106 C.3     1  UNL1        0.0401
     13 C          62.3735   89.1140   10.8006 C.3     1  UNL1        0.0740
     14 N          62.4583   87.8573   11.6150 N.3     1  UNL1       -0.2726
     15 C          63.3236   87.8140   12.8394 C.3     1  UNL1        0.0740
     16 C          64.1042   89.0275   13.2494 C.3     1  UNL1        0.0401
     17 C          61.6776   86.6438   11.2050 C.3     1  UNL1        0.0720
     18 C          62.3945   85.3724   10.8592 C.3     1  UNL1        0.0160
     19 C          62.8005   84.2985   11.8245 C.3     1  UNL1        0.0013
     20 C          63.4765   82.9646   11.9419 C.3     1  UNL1        0.0000
     21 C          63.9132   82.5439   10.5700 C.3     1  UNL1        0.0000
     22 C          63.5072   83.6178    9.6046 C.3     1  UNL1        0.0000
     23 C          63.4882   83.2141   11.0492 C.3     1  UNL1        0.0000
     24 C          62.8313   84.9517    9.4872 C.3     1  UNL1        0.0013
     25 C          62.3112   86.1667    8.7777 C.3     1  UNL1        0.0000
     26 C          62.9989   85.0823    8.0023 C.3     1  UNL1        0.0000
     27 C          66.6490   93.8154   15.3500 C.3     1  UNL1        0.1422
     28 C          68.1156   93.6421   15.6129 C.3     1  UNL1        0.1623
     29 O          68.8761   94.7044   16.3500 O.3     1  UNL1       -0.3799
     30 H          68.2752   95.4293   16.5833 H       1  UNL1        0.2105
     31 C          68.8217   92.4066   15.1388 C.3     1  UNL1        0.1683
     32 O          68.1780   91.0626   15.3098 O.3     1  UNL1       -0.3794
     33 H          68.1066   90.8563   16.2549 H       1  UNL1        0.2105
@<TRIPOS>BOND
     1     1     2    2
     2     2     3   ar
     3     3    27    1
     4    27    28    1
     5    28    29    1
     6    28    31    1
     7    31    32    1
     8     3     4   ar
     9     4     5   ar
    10     5     6   ar
    11     6     7   ar
    12     7     8   ar
    13     8     9   ar
    14     9    10   ar
    15    10    11    1
    16    11    12    1
    17    12    13    1
    18    13    14    1
    19    14    17    1
    20    18    17    1
    21    18    19    1
    22    19    20    1
    23    20    21    1
    24    22    21    1
    25    22    23    1
    26    22    24    1
    27    24    25    1
    28    25    26    1
    29    14    15    1
    30    15    16    1
    31    10     2   ar
    32    16    11    1
    33     9     4   ar
    34    24    18    1
    35    23    19    1
    36    26    24    1
    37    29    30    1
    38    32    33    1
