@<TRIPOS>MOLECULE
*****
 32 36 0 0 0
SMALL
GASTEIGER

@<TRIPOS>ATOM
      1 C          62.7663   81.4353   12.4341 C.2     1  UNL1        0.2718
      2 C          62.9758   82.0902   11.1010 C.2     1  UNL1        0.0724
      3 C          63.2385   83.5649   11.0228 C.2     1  UNL1        0.0248
      4 C          63.2916   84.3848   12.2778 C.2     1  UNL1        0.0797
      5 N          63.5298   85.8471   12.5120 N.2     1  UNL1       -0.2413
      6 C          63.4674   86.0961   13.9899 C.ar    1  UNL1        0.1301
      7 C          63.6268   87.3452   14.8049 C.ar    1  UNL1        0.1528
      8 N          63.5096   87.2858   16.2991 N.ar    1  UNL1       -0.2074
      9 C          63.2329   85.9773   16.9783 C.ar    1  UNL1        0.2001
     10 N          63.0735   84.7282   16.1632 N.ar    1  UNL1       -0.2226
     11 C          63.1908   84.7876   14.6691 C.ar    1  UNL1        0.1014
     12 C          63.0821   83.7300   13.6109 C.2     1  UNL1        0.0255
     13 C          62.8195   82.2552   13.6891 C.3     1  UNL1        0.1323
     14 N          63.9035   88.6537   14.1257 N.pl3   1  UNL1       -0.2891
     15 C          63.2330   88.9797   12.8241 C.3     1  UNL1        0.1095
     16 C          63.5097   90.2882   12.1450 C.3     1  UNL1        0.0939
     17 N          64.4569   91.2708   12.7674 N.3     1  UNL1       -0.2695
     18 C          65.1274   90.9448   14.0690 C.3     1  UNL1        0.0939
     19 C          64.8507   89.6363   14.7481 C.3     1  UNL1        0.1095
     20 C          64.7336   92.5793   12.0883 C.3     1  UNL1        0.0769
     21 C          66.1211   93.1490   12.0949 C.3     1  UNL1        0.0437
     22 C          66.5579   94.0726   10.9966 C.ar    1  UNL1       -0.0184
     23 C          66.3460   95.5514   11.1315 C.ar    1  UNL1       -0.0018
     24 C          66.7827   96.4750   10.0333 C.ar    1  UNL1        0.0316
     25 C          67.4314   95.9197    8.8000 C.ar    1  UNL1        0.1674
     26 F          67.8682   96.8433    7.7017 F       1  UNL1       -0.2018
     27 C          67.6434   94.4409    8.6650 C.ar    1  UNL1        0.1671
     28 F          68.2921   93.8857    7.4317 F       1  UNL1       -0.2018
     29 C          67.2066   93.5173    9.7633 C.ar    1  UNL1        0.0277
     30 O          62.0325   79.3498   13.7987 O.2     1  UNL1        0.0411
     31 N          62.5037   79.9606   12.5123 N.pl3   1  UNL1        0.0768
     32 O          62.7123   79.0965   11.3041 O.co2   1  UNL1       -0.5763
@<TRIPOS>UNITY_ATOM_ATTR
31 1
charge 1
32 1
charge -1
@<TRIPOS>BOND
     1    30    31    2
     2    31    32    1
     3    31     1    1
     4     1     2    2
     5     2     3    1
     6     3     4    2
     7     4     5    1
     8     5     6    2
     9     6     7   ar
    10     7    14    1
    11    14    15    1
    12    15    16    1
    13    16    17    1
    14    17    20    1
    15    20    21    1
    16    21    22    1
    17    22    23   ar
    18    23    24   ar
    19    24    25   ar
    20    25    26    1
    21    25    27   ar
    22    27    28    1
    23    27    29   ar
    24    17    18    1
    25    18    19    1
    26     7     8   ar
    27     8     9   ar
    28     9    10   ar
    29    10    11   ar
    30    11    12    2
    31    12    13    1
    32    13     1    1
    33    12     4    1
    34    11     6   ar
    35    19    14    1
    36    29    22   ar
@<TRIPOS>MOLECULE
*****
 32 36 0 0 0
SMALL
GASTEIGER

@<TRIPOS>ATOM
      1 C          61.9447   93.6129    1.4866 C.2     1  UNL1        0.2718
      2 C          63.1903   92.9353    1.9756 C.2     1  UNL1        0.0724
      3 C          63.1164   91.9598    3.1127 C.2     1  UNL1        0.0248
      4 C          61.7968   91.6619    3.7607 C.2     1  UNL1        0.0797
      5 N          61.4166   90.7533    4.8920 N.2     1  UNL1       -0.2413
      6 C          59.9359   90.8693    5.1022 C.ar    1  UNL1        0.1301
      7 C          59.0056   90.2090    6.0760 C.ar    1  UNL1        0.1528
      8 N          57.5404   90.5290    6.0484 N.ar    1  UNL1       -0.2074
      9 C          57.0055   91.5094    5.0470 C.ar    1  UNL1        0.2001
     10 N          57.9359   92.1697    4.0732 N.ar    1  UNL1       -0.2226
     11 C          59.4010   91.8497    4.1008 C.ar    1  UNL1        0.1014
     12 C          60.5512   92.3395    3.2717 C.2     1  UNL1        0.0255
     13 C          60.6251   93.3150    2.1346 C.3     1  UNL1        0.1323
     14 N          59.5405   89.2286    7.0775 N.pl3   1  UNL1       -0.2891
     15 C          60.2265   89.7215    8.3170 C.3     1  UNL1        0.1095
     16 C          60.7613   88.7411    9.3184 C.3     1  UNL1        0.0939
     17 N          60.6101   87.2679    9.0803 N.3     1  UNL1       -0.2695
     18 C          59.9240   86.7750    7.8408 C.3     1  UNL1        0.0939
     19 C          59.3892   87.7553    6.8394 C.3     1  UNL1        0.1095
     20 C          61.1449   86.2875   10.0817 C.3     1  UNL1        0.0769
     21 C          62.4719   85.6276    9.8503 C.3     1  UNL1        0.0437
     22 C          62.9158   84.5037   10.7391 C.ar    1  UNL1       -0.0184
     23 C          63.8123   83.4294   10.1987 C.ar    1  UNL1       -0.0018
     24 C          64.2561   82.3055   11.0875 C.ar    1  UNL1        0.0316
     25 C          63.8035   82.2561   12.5167 C.ar    1  UNL1        0.1674
     26 F          64.2474   81.1323   13.4055 F       1  UNL1       -0.2018
     27 C          62.9071   83.3304   13.0572 C.ar    1  UNL1        0.1671
     28 F          62.4545   83.2810   14.4864 F       1  UNL1       -0.2018
     29 C          62.4632   84.4544   12.1684 C.ar    1  UNL1        0.0277
     30 O          60.7713   95.2576   -0.1469 O.2     1  UNL1        0.0411
     31 N          62.0186   94.5884    0.3495 N.pl3   1  UNL1        0.0768
     32 O          63.3398   94.8948   -0.2911 O.co2   1  UNL1       -0.5763
@<TRIPOS>UNITY_ATOM_ATTR
31 1
charge 1
32 1
charge -1
@<TRIPOS>BOND
     1    30    31    2
     2    31    32    1
     3    31     1    1
     4     1     2    2
     5     2     3    1
     6     3     4    2
     7     4     5    1
     8     5     6    2
     9     6     7   ar
    10     7    14    1
    11    14    15    1
    12    15    16    1
    13    16    17    1
    14    17    20    1
    15    20    21    1
    16    21    22    1
    17    22    23   ar
    18    23    24   ar
    19    24    25   ar
    20    25    26    1
    21    25    27   ar
    22    27    28    1
    23    27    29   ar
    24    17    18    1
    25    18    19    1
    26     7     8   ar
    27     8     9   ar
    28     9    10   ar
    29    10    11   ar
    30    11    12    2
    31    12    13    1
    32    13     1    1
    33    12     4    1
    34    11     6   ar
    35    19    14    1
    36    29    22   ar
@<TRIPOS>MOLECULE
*****
 32 36 0 0 0
SMALL
GASTEIGER

@<TRIPOS>ATOM
      1 C          66.5815   92.4890   14.3154 C.2     1  UNL1        0.2718
      2 C          66.2043   93.4173   13.1993 C.2     1  UNL1        0.0724
      3 C          65.2111   92.9805   12.1636 C.2     1  UNL1        0.0248
      4 C          64.5950   91.6152   12.2441 C.2     1  UNL1        0.0797
      5 N          63.5948   90.9125   11.3747 N.2     1  UNL1       -0.2413
      6 C          63.3538   89.5498   11.9535 C.ar    1  UNL1        0.1301
      7 C          62.4693   88.4181   11.5217 C.ar    1  UNL1        0.1528
      8 N          62.4359   87.1467   12.3170 N.ar    1  UNL1       -0.2074
      9 C          63.2872   87.0072   13.5442 C.ar    1  UNL1        0.2001
     10 N          64.1718   88.1390   13.9759 N.ar    1  UNL1       -0.2226
     11 C          64.2051   89.4103   13.1806 C.ar    1  UNL1        0.1014
     12 C          64.9722   90.6868   13.3602 C.2     1  UNL1        0.0255
     13 C          65.9654   91.1237   14.3959 C.3     1  UNL1        0.1323
     14 N          61.6179   88.5576   10.2945 N.pl3   1  UNL1       -0.2891
     15 C          61.4107   87.3808    9.3877 C.3     1  UNL1        0.1095
     16 C          60.5594   87.5204    8.1606 C.3     1  UNL1        0.0939
     17 N          59.9154   88.8367    7.8403 N.3     1  UNL1       -0.2695
     18 C          60.1226   90.0134    8.7471 C.3     1  UNL1        0.0939
     19 C          60.9739   89.8739    9.9742 C.3     1  UNL1        0.1095
     20 C          59.0641   88.9762    6.6132 C.3     1  UNL1        0.0769
     21 C          58.6617   90.3382    6.1304 C.3     1  UNL1        0.0437
     22 C          59.4870   91.0403    5.0931 C.ar    1  UNL1       -0.0184
     23 C          58.8753   92.1235    4.2550 C.ar    1  UNL1       -0.0018
     24 C          59.7005   92.8256    3.2177 C.ar    1  UNL1        0.0316
     25 C          61.1376   92.4444    3.0184 C.ar    1  UNL1        0.1674
     26 F          61.9628   93.1465    1.9811 F       1  UNL1       -0.2018
     27 C          61.7493   91.3612    3.8565 C.ar    1  UNL1        0.1671
     28 F          63.1864   90.9800    3.6572 F       1  UNL1       -0.2018
     29 C          60.9240   90.6591    4.8939 C.ar    1  UNL1        0.0277
     30 O          68.9948   93.2055   14.9575 O.2     1  UNL1        0.0411
     31 N          67.5747   92.9258   15.3511 N.pl3   1  UNL1        0.0768
     32 O          67.1478   93.0830   16.7804 O.co2   1  UNL1       -0.5763
@<TRIPOS>UNITY_ATOM_ATTR
31 1
charge 1
32 1
charge -1
@<TRIPOS>BOND
     1    30    31    2
     2    31    32    1
     3    31     1    1
     4     1     2    2
     5     2     3    1
     6     3     4    2
     7     4     5    1
     8     5     6    2
     9     6     7   ar
    10     7    14    1
    11    14    15    1
    12    15    16    1
    13    16    17    1
    14    17    20    1
    15    20    21    1
    16    21    22    1
    17    22    23   ar
    18    23    24   ar
    19    24    25   ar
    20    25    26    1
    21    25    27   ar
    22    27    28    1
    23    27    29   ar
    24    17    18    1
    25    18    19    1
    26     7     8   ar
    27     8     9   ar
    28     9    10   ar
    29    10    11   ar
    30    11    12    2
    31    12    13    1
    32    13     1    1
    33    12     4    1
    34    11     6   ar
    35    19    14    1
    36    29    22   ar
@<TRIPOS>MOLECULE
*****
 32 36 0 0 0
SMALL
GASTEIGER

@<TRIPOS>ATOM
      1 C          66.0447   94.2838   11.9168 C.2     1  UNL1        0.2718
      2 C          66.7217   93.7274   13.1342 C.2     1  UNL1        0.0724
      3 C          66.3837   92.3476   13.6157 C.2     1  UNL1        0.0248
      4 C          65.3687   91.5241   12.8798 C.2     1  UNL1        0.0797
      5 N          64.8349   90.1424   13.1163 N.2     1  UNL1       -0.2413
      6 C          63.8280   89.8448   12.0450 C.ar    1  UNL1        0.1301
      7 C          62.9804   88.6379   11.7718 C.ar    1  UNL1        0.1528
      8 N          62.0441   88.6287   10.5999 N.ar    1  UNL1       -0.2074
      9 C          61.9555   89.8265    9.7013 C.ar    1  UNL1        0.2001
     10 N          62.8032   91.0335    9.9747 N.ar    1  UNL1       -0.2226
     11 C          63.7394   91.0426   11.1465 C.ar    1  UNL1        0.1014
     12 C          64.6916   92.0805   11.6625 C.2     1  UNL1        0.0255
     13 C          65.0296   93.4603   11.1810 C.3     1  UNL1        0.1323
     14 N          63.0689   87.4400   12.6703 N.pl3   1  UNL1       -0.2891
     15 C          63.7645   87.5460   13.9951 C.3     1  UNL1        0.1095
     16 C          63.8530   86.3481   14.8936 C.3     1  UNL1        0.0939
     17 N          63.2460   85.0443   14.4673 N.3     1  UNL1       -0.2695
     18 C          62.5504   84.9384   13.1426 C.3     1  UNL1        0.0939
     19 C          62.4619   86.1362   12.2441 C.3     1  UNL1        0.1095
     20 C          63.3345   83.8465   15.3658 C.3     1  UNL1        0.0769
     21 C          64.0830   82.6263   14.9174 C.3     1  UNL1        0.0437
     22 C          63.7615   81.9926   13.5963 C.ar    1  UNL1       -0.0184
     23 C          62.8284   80.8198   13.5344 C.ar    1  UNL1       -0.0018
     24 C          62.5070   80.1861   12.2133 C.ar    1  UNL1        0.0316
     25 C          63.1187   80.7253   10.9543 C.ar    1  UNL1        0.1674
     26 F          62.7973   80.0916    9.6332 F       1  UNL1       -0.2018
     27 C          64.0519   81.8980   11.0163 C.ar    1  UNL1        0.1671
     28 F          64.6636   82.4372    9.7572 F       1  UNL1       -0.2018
     29 C          64.3733   82.5318   12.3373 C.ar    1  UNL1        0.0277
     30 O          66.1153   96.8505   12.3126 O.2     1  UNL1        0.0411
     31 N          66.3827   95.6636   11.4353 N.pl3   1  UNL1        0.0768
     32 O          66.9880   95.8565   10.0766 O.co2   1  UNL1       -0.5763
@<TRIPOS>UNITY_ATOM_ATTR
31 1
charge 1
32 1
charge -1
@<TRIPOS>BOND
     1    30    31    2
     2    31    32    1
     3    31     1    1
     4     1     2    2
     5     2     3    1
     6     3     4    2
     7     4     5    1
     8     5     6    2
     9     6     7   ar
    10     7    14    1
    11    14    15    1
    12    15    16    1
    13    16    17    1
    14    17    20    1
    15    20    21    1
    16    21    22    1
    17    22    23   ar
    18    23    24   ar
    19    24    25   ar
    20    25    26    1
    21    25    27   ar
    22    27    28    1
    23    27    29   ar
    24    17    18    1
    25    18    19    1
    26     7     8   ar
    27     8     9   ar
    28     9    10   ar
    29    10    11   ar
    30    11    12    2
    31    12    13    1
    32    13     1    1
    33    12     4    1
    34    11     6   ar
    35    19    14    1
    36    29    22   ar
@<TRIPOS>MOLECULE
*****
 32 36 0 0 0
SMALL
GASTEIGER

@<TRIPOS>ATOM
      1 C          59.4113   90.1115    6.3364 C.2     1  UNL1        0.2718
      2 C          58.0486   90.5847    5.9251 C.2     1  UNL1        0.0724
      3 C          57.8940   91.4790    4.7308 C.2     1  UNL1        0.0248
      4 C          59.1021   91.9000    3.9477 C.2     1  UNL1        0.0797
      5 N          59.2595   92.7685    2.7349 N.2     1  UNL1       -0.2413
      6 C          60.7195   92.8320    2.3966 C.ar    1  UNL1        0.1301
      7 C          61.4668   93.5378    1.3042 C.ar    1  UNL1        0.1528
      8 N          62.9591   93.4144    1.2156 N.ar    1  UNL1       -0.2074
      9 C          63.7040   92.5852    2.2193 C.ar    1  UNL1        0.2001
     10 N          62.9566   91.8795    3.3117 N.ar    1  UNL1       -0.2226
     11 C          61.4644   92.0029    3.4003 C.ar    1  UNL1        0.1014
     12 C          60.4647   91.4268    4.3590 C.2     1  UNL1        0.0255
     13 C          60.6193   90.5326    5.5533 C.3     1  UNL1        0.1323
     14 N          60.7218   94.3670    0.3004 N.pl3   1  UNL1       -0.2891
     15 C          59.7990   95.4551    0.7633 C.3     1  UNL1        0.1095
     16 C          59.0541   96.2843   -0.2405 C.3     1  UNL1        0.0939
     17 N          59.2321   96.0253   -1.7072 N.3     1  UNL1       -0.2695
     18 C          60.1549   94.9372   -2.1702 C.3     1  UNL1        0.0939
     19 C          60.8998   94.1081   -1.1664 C.3     1  UNL1        0.1095
     20 C          58.4872   96.8545   -2.7110 C.3     1  UNL1        0.0769
     21 C          57.2421   96.3169   -3.3519 C.3     1  UNL1        0.0437
     22 C          56.8652   94.8767   -3.1670 C.ar    1  UNL1       -0.0184
     23 C          56.0602   94.4596   -1.9720 C.ar    1  UNL1       -0.0018
     24 C          55.6833   93.0196   -1.7872 C.ar    1  UNL1        0.0316
     25 C          56.1115   91.9966   -2.7973 C.ar    1  UNL1        0.1674
     26 F          55.7346   90.5566   -2.6125 F       1  UNL1       -0.2018
     27 C          56.9165   92.4138   -3.9923 C.ar    1  UNL1        0.1671
     28 F          57.3447   91.3908   -5.0024 F       1  UNL1       -0.2018
     29 C          57.2934   93.8539   -4.1772 C.ar    1  UNL1        0.0277
     30 O          60.1903   89.7461    8.7878 O.2     1  UNL1        0.0411
     31 N          59.5659   89.2173    7.5307 N.pl3   1  UNL1        0.0768
     32 O          59.0959   87.7942    7.4679 O.co2   1  UNL1       -0.5763
@<TRIPOS>UNITY_ATOM_ATTR
31 1
charge 1
32 1
charge -1
@<TRIPOS>BOND
     1    30    31    2
     2    31    32    1
     3    31     1    1
     4     1     2    2
     5     2     3    1
     6     3     4    2
     7     4     5    1
     8     5     6    2
     9     6     7   ar
    10     7    14    1
    11    14    15    1
    12    15    16    1
    13    16    17    1
    14    17    20    1
    15    20    21    1
    16    21    22    1
    17    22    23   ar
    18    23    24   ar
    19    24    25   ar
    20    25    26    1
    21    25    27   ar
    22    27    28    1
    23    27    29   ar
    24    17    18    1
    25    18    19    1
    26     7     8   ar
    27     8     9   ar
    28     9    10   ar
    29    10    11   ar
    30    11    12    2
    31    12    13    1
    32    13     1    1
    33    12     4    1
    34    11     6   ar
    35    19    14    1
    36    29    22   ar
@<TRIPOS>MOLECULE
*****
 32 36 0 0 0
SMALL
GASTEIGER

@<TRIPOS>ATOM
      1 C          62.8341   81.1975   12.4048 C.2     1  UNL1        0.2718
      2 C          63.0176   81.8367   11.0602 C.2     1  UNL1        0.0724
      3 C          63.2464   83.3156   10.9578 C.2     1  UNL1        0.0248
      4 C          63.2919   84.1553   12.1998 C.2     1  UNL1        0.0797
      5 N          63.4992   85.6259   12.4101 N.2     1  UNL1       -0.2413
      6 C          63.4440   85.8957   13.8847 C.ar    1  UNL1        0.1301
      7 C          63.5823   87.1601   14.6795 C.ar    1  UNL1        0.1528
      8 N          63.4792   87.1207   16.1755 N.ar    1  UNL1       -0.2074
      9 C          63.2377   85.8168   16.8765 C.ar    1  UNL1        0.2001
     10 N          63.0993   84.5523   16.0815 N.ar    1  UNL1       -0.2226
     11 C          63.2025   84.5917   14.5857 C.ar    1  UNL1        0.1014
     12 C          63.1085   83.5161   13.5444 C.2     1  UNL1        0.0255
     13 C          62.8796   82.0372   13.6468 C.3     1  UNL1        0.1323
     14 N          63.8238   88.4642   13.9785 N.pl3   1  UNL1       -0.2891
     15 C          64.6651   89.5214   14.6300 C.3     1  UNL1        0.1095
     16 C          64.9066   90.8253   13.9290 C.3     1  UNL1        0.0939
     17 N          64.3068   91.0720   12.5765 N.3     1  UNL1       -0.2695
     18 C          63.4654   90.0148   11.9249 C.3     1  UNL1        0.0939
     19 C          63.2240   88.7109   12.6259 C.3     1  UNL1        0.1095
     20 C          64.5482   92.3759   11.8754 C.3     1  UNL1        0.0769
     21 C          65.9471   92.8926   11.7137 C.3     1  UNL1        0.0437
     22 C          66.8711   92.9381   12.8945 C.ar    1  UNL1       -0.0184
     23 C          66.4518   93.6471   14.1481 C.ar    1  UNL1       -0.0018
     24 C          67.3757   93.6925   15.3288 C.ar    1  UNL1        0.0316
     25 C          68.7191   93.0291   15.2560 C.ar    1  UNL1        0.1674
     26 F          69.6431   93.0745   16.4367 F       1  UNL1       -0.2018
     27 C          69.1384   92.3201   14.0024 C.ar    1  UNL1        0.1671
     28 F          70.4818   91.6567   13.9295 F       1  UNL1       -0.2018
     29 C          68.2144   92.2746   12.8215 C.ar    1  UNL1        0.0277
     30 O          62.2929   79.0984   13.8367 O.2     1  UNL1        0.0411
     31 N          62.6052   79.7186   12.5072 N.pl3   1  UNL1        0.0768
     32 O          62.6887   78.8600   11.2802 O.co2   1  UNL1       -0.5763
@<TRIPOS>UNITY_ATOM_ATTR
31 1
charge 1
32 1
charge -1
@<TRIPOS>BOND
     1    30    31    2
     2    31    32    1
     3    31     1    1
     4     1     2    2
     5     2     3    1
     6     3     4    2
     7     4     5    1
     8     5     6    2
     9     6     7   ar
    10     7    14    1
    11    14    15    1
    12    15    16    1
    13    16    17    1
    14    17    20    1
    15    20    21    1
    16    21    22    1
    17    22    23   ar
    18    23    24   ar
    19    24    25   ar
    20    25    26    1
    21    25    27   ar
    22    27    28    1
    23    27    29   ar
    24    17    18    1
    25    18    19    1
    26     7     8   ar
    27     8     9   ar
    28     9    10   ar
    29    10    11   ar
    30    11    12    2
    31    12    13    1
    32    13     1    1
    33    12     4    1
    34    11     6   ar
    35    19    14    1
    36    29    22   ar
@<TRIPOS>MOLECULE
*****
 32 36 0 0 0
SMALL
GASTEIGER

@<TRIPOS>ATOM
      1 C          59.2192   89.6379    6.9240 C.2     1  UNL1        0.2718
      2 C          58.8252   88.2034    7.1163 C.2     1  UNL1        0.0724
      3 C          59.4297   87.4025    8.2312 C.2     1  UNL1        0.0248
      4 C          60.4282   88.0361    9.1540 C.2     1  UNL1        0.0797
      5 N          61.1867   87.5010   10.3322 N.2     1  UNL1       -0.2413
      6 C          62.0495   88.6047   10.8682 C.ar    1  UNL1        0.1301
      7 C          63.0111   88.6586   12.0181 C.ar    1  UNL1        0.1528
      8 N          63.7476   89.9298   12.3210 N.ar    1  UNL1       -0.2074
      9 C          63.5224   91.1471   11.4740 C.ar    1  UNL1        0.2001
     10 N          62.5607   91.0932   10.3241 N.ar    1  UNL1       -0.2226
     11 C          61.8243   89.8220   10.0212 C.ar    1  UNL1        0.1014
     12 C          60.8223   89.4706    8.9617 C.2     1  UNL1        0.0255
     13 C          60.2178   90.2715    7.8468 C.3     1  UNL1        0.1323
     14 N          63.2364   87.4412   12.8652 N.pl3   1  UNL1       -0.2891
     15 C          62.6369   86.1263   12.4631 C.3     1  UNL1        0.1095
     16 C          62.8621   84.9091   13.3102 C.3     1  UNL1        0.0939
     17 N          63.6869   85.0067   14.5593 N.3     1  UNL1       -0.2695
     18 C          64.2864   86.3216   14.9614 C.3     1  UNL1        0.0939
     19 C          64.0611   87.5388   14.1143 C.3     1  UNL1        0.1095
     20 C          63.9121   83.7895   15.4064 C.3     1  UNL1        0.0769
     21 C          64.5948   82.5870   14.8249 C.3     1  UNL1        0.0437
     22 C          64.1005   81.9924   13.5394 C.ar    1  UNL1       -0.0184
     23 C          63.1709   80.8156   13.5660 C.ar    1  UNL1       -0.0018
     24 C          62.6767   80.2210   12.2806 C.ar    1  UNL1        0.0316
     25 C          63.1122   80.8034   10.9686 C.ar    1  UNL1        0.1674
     26 F          62.6181   80.2089    9.6832 F       1  UNL1       -0.2018
     27 C          64.0419   81.9802   10.9420 C.ar    1  UNL1        0.1671
     28 F          64.4774   82.5626    9.6301 F       1  UNL1       -0.2018
     29 C          64.5361   82.5748   12.2275 C.ar    1  UNL1        0.0277
     30 O          57.1241   90.5053    5.6560 O.2     1  UNL1        0.0411
     31 N          58.6147   90.4388    5.8091 N.pl3   1  UNL1        0.0768
     32 O          59.5009   91.1732    4.8472 O.co2   1  UNL1       -0.5763
@<TRIPOS>UNITY_ATOM_ATTR
31 1
charge 1
32 1
charge -1
@<TRIPOS>BOND
     1    30    31    2
     2    31    32    1
     3    31     1    1
     4     1     2    2
     5     2     3    1
     6     3     4    2
     7     4     5    1
     8     5     6    2
     9     6     7   ar
    10     7    14    1
    11    14    15    1
    12    15    16    1
    13    16    17    1
    14    17    20    1
    15    20    21    1
    16    21    22    1
    17    22    23   ar
    18    23    24   ar
    19    24    25   ar
    20    25    26    1
    21    25    27   ar
    22    27    28    1
    23    27    29   ar
    24    17    18    1
    25    18    19    1
    26     7     8   ar
    27     8     9   ar
    28     9    10   ar
    29    10    11   ar
    30    11    12    2
    31    12    13    1
    32    13     1    1
    33    12     4    1
    34    11     6   ar
    35    19    14    1
    36    29    22   ar
@<TRIPOS>MOLECULE
*****
 32 36 0 0 0
SMALL
GASTEIGER

@<TRIPOS>ATOM
      1 C          67.6285   92.7854   14.8626 C.2     1  UNL1        0.2718
      2 C          67.8690   92.9134   13.3876 C.2     1  UNL1        0.0724
      3 C          66.8815   92.3413   12.4142 C.2     1  UNL1        0.0248
      4 C          65.6535   91.6411   12.9159 C.2     1  UNL1        0.0797
      5 N          64.5113   90.9820   12.2011 N.2     1  UNL1       -0.2413
      6 C          63.5648   90.4466   13.2343 C.ar    1  UNL1        0.1301
      7 C          62.2676   89.7027   13.1176 C.ar    1  UNL1        0.1528
      8 N          61.5276   89.2869   14.3544 N.ar    1  UNL1       -0.2074
      9 C          62.0848   89.6151   15.7078 C.ar    1  UNL1        0.2001
     10 N          63.3821   90.3591   15.8244 N.ar    1  UNL1       -0.2226
     11 C          64.1221   90.7748   14.5877 C.ar    1  UNL1        0.1014
     12 C          65.4130   91.5130   14.3909 C.2     1  UNL1        0.0255
     13 C          66.4004   92.0852   15.3643 C.3     1  UNL1        0.1323
     14 N          61.7103   89.3744   11.7641 N.pl3   1  UNL1       -0.2891
     15 C          60.7207   90.2971   11.1166 C.3     1  UNL1        0.1095
     16 C          60.1635   89.9689    9.7632 C.3     1  UNL1        0.0939
     17 N          60.5958   88.7179    9.0574 N.3     1  UNL1       -0.2695
     18 C          61.5854   87.7952    9.7049 C.3     1  UNL1        0.0939
     19 C          62.1426   88.1234   11.0583 C.3     1  UNL1        0.1095
     20 C          60.0385   88.3896    7.7040 C.3     1  UNL1        0.0769
     21 C          58.8645   89.1557    7.1704 C.3     1  UNL1        0.0437
     22 C          59.0630   90.1742    6.0871 C.ar    1  UNL1       -0.0184
     23 C          57.8931   90.9586    5.5716 C.ar    1  UNL1       -0.0018
     24 C          58.0917   91.9770    4.4884 C.ar    1  UNL1        0.0316
     25 C          59.4603   92.2109    3.9207 C.ar    1  UNL1        0.1674
     26 F          59.6589   93.2293    2.8374 F       1  UNL1       -0.2018
     27 C          60.6302   91.4265    4.4362 C.ar    1  UNL1        0.1671
     28 F          61.9988   91.6604    3.8684 F       1  UNL1       -0.2018
     29 C          60.4317   90.4080    5.5194 C.ar    1  UNL1        0.0277
     30 O          69.5506   92.4487   16.5778 O.2     1  UNL1        0.0411
     31 N          68.6159   93.3576   15.8360 N.pl3   1  UNL1        0.0768
     32 O          68.6688   94.8386   16.0676 O.co2   1  UNL1       -0.5763
@<TRIPOS>UNITY_ATOM_ATTR
31 1
charge 1
32 1
charge -1
@<TRIPOS>BOND
     1    30    31    2
     2    31    32    1
     3    31     1    1
     4     1     2    2
     5     2     3    1
     6     3     4    2
     7     4     5    1
     8     5     6    2
     9     6     7   ar
    10     7    14    1
    11    14    15    1
    12    15    16    1
    13    16    17    1
    14    17    20    1
    15    20    21    1
    16    21    22    1
    17    22    23   ar
    18    23    24   ar
    19    24    25   ar
    20    25    26    1
    21    25    27   ar
    22    27    28    1
    23    27    29   ar
    24    17    18    1
    25    18    19    1
    26     7     8   ar
    27     8     9   ar
    28     9    10   ar
    29    10    11   ar
    30    11    12    2
    31    12    13    1
    32    13     1    1
    33    12     4    1
    34    11     6   ar
    35    19    14    1
    36    29    22   ar
