@<TRIPOS>MOLECULE
*****
 39 43 0 0 0
SMALL
GASTEIGER

@<TRIPOS>ATOM
      1 C          65.0784   91.4993   13.8811 C.3     1  UNL1        0.0761
      2 C          63.7396   90.6514   15.9400 C.ar    1  UNL1        0.1351
      3 C          63.1829   89.5190   16.7508 C.ar    1  UNL1        0.0366
      4 C          63.4081   88.1018   16.3138 C.ar    1  UNL1        0.0030
      5 C          62.8514   86.9694   17.1246 C.ar    1  UNL1        0.0006
      6 C          63.0766   85.5523   16.6875 C.ar    1  UNL1        0.0067
      7 C          63.8586   85.2676   15.4396 C.ar    1  UNL1        0.0346
      8 BR         64.0839   83.8505   15.0025 Br      1  UNL1       -0.0490
      9 C          64.4154   86.4001   14.6287 C.ar    1  UNL1        0.0067
     10 C          64.1901   87.8171   15.0658 C.ar    1  UNL1        0.0004
     11 C          64.7469   88.9497   14.2549 C.ar    1  UNL1       -0.0009
     12 C          64.5217   90.3667   14.6920 C.ar    1  UNL1        0.0181
     13 C          64.4970   92.7361   17.2929 C.3     1  UNL1        0.2525
     14 O          63.5144   92.0686   16.3770 O.3     1  UNL1       -0.4717
     15 C          66.2132   92.3198   14.4188 C.ar    1  UNL1       -0.0160
     16 C          66.2918   93.7852   14.1088 C.ar    1  UNL1       -0.0039
     17 C          67.4266   94.6057   14.6465 C.ar    1  UNL1       -0.0006
     18 C          68.4827   93.9607   15.4942 C.ar    1  UNL1       -0.0043
     19 C          68.4040   92.4952   15.8043 C.ar    1  UNL1       -0.0222
     20 C          69.4601   91.8502   16.6519 C.3     1  UNL1        0.0310
     21 C          67.2693   91.6747   15.2665 C.ar    1  UNL1       -0.0081
     22 C          64.5004   91.8113   12.5326 C.3     1  UNL1        0.1187
     23 O          63.1202   91.5714   13.0686 O.3     1  UNL1       -0.3819
     24 H          62.6886   90.8744   12.5502 H       1  UNL1        0.2107
     25 C          65.8807   92.0511   11.9965 C.ar    1  UNL1        0.0394
     26 C          66.9784   91.0704   12.2854 C.ar    1  UNL1        0.0012
     27 C          68.3586   91.3103   11.7493 C.ar    1  UNL1        0.0031
     28 C          68.6412   92.5308   10.9243 C.ar    1  UNL1        0.0400
     29 C          67.5436   93.5114   10.6355 C.ar    1  UNL1        0.1721
     30 C          66.1633   93.2716   11.1715 C.ar    1  UNL1        0.1705
     31 O          65.0656   94.2522   10.8827 O.3     1  UNL1       -0.4686
     32 C          65.3482   95.4727   10.0577 C.3     1  UNL1        0.2526
     33 C          66.7284   95.7126    9.5217 C.3     1  UNL1        0.2526
     34 O          67.8262   94.7319    9.8105 O.3     1  UNL1       -0.4684
     35 C          63.9225   92.1232   11.1840 C.3     1  UNL1        0.0492
     36 C          63.4112   91.0147   10.3125 C.3     1  UNL1        0.0750
     37 N          62.3087   90.1232   10.8023 N.3     1  UNL1       -0.2702
     38 C          62.6306   88.7653   11.3523 C.3     1  UNL1        0.0897
     39 C          60.8844   90.5896   10.7423 C.3     1  UNL1        0.0897
@<TRIPOS>BOND
     1    13    14    1
     2    14     2    1
     3     2     3   ar
     4     3     4   ar
     5     4     5   ar
     6     5     6   ar
     7     6     7   ar
     8     7     8    1
     9     7     9   ar
    10     9    10   ar
    11    10    11   ar
    12    11    12   ar
    13     1    12    1
    14     1    15    1
    15    15    16   ar
    16    16    17   ar
    17    17    18   ar
    18    18    19   ar
    19    19    20    1
    20    19    21   ar
    21     1    22    1
    22    22    23    1
    23    22    35    1
    24    35    36    1
    25    36    37    1
    26    37    38    1
    27    37    39    1
    28    22    25    1
    29    25    26   ar
    30    26    27   ar
    31    27    28   ar
    32    28    29   ar
    33    29    30   ar
    34    30    31    1
    35    31    32    1
    36    32    33    1
    37    33    34    1
    38    12     2   ar
    39    21    15   ar
    40    30    25   ar
    41    10     4   ar
    42    34    29    1
    43    23    24    1
@<TRIPOS>MOLECULE
*****
 39 43 0 0 0
SMALL
GASTEIGER

@<TRIPOS>ATOM
      1 C          61.7201   88.0935   10.0290 C.3     1  UNL1        0.0761
      2 C          62.7136   85.7543    9.4891 C.ar    1  UNL1        0.1351
      3 C          63.2877   84.4484    9.9525 C.ar    1  UNL1        0.0366
      4 C          63.4424   84.1755   11.4194 C.ar    1  UNL1        0.0030
      5 C          64.0165   82.8695   11.8828 C.ar    1  UNL1        0.0006
      6 C          64.1712   82.5966   13.3496 C.ar    1  UNL1        0.0067
      7 C          63.7518   83.6298   14.3530 C.ar    1  UNL1        0.0346
      8 BR         63.9065   83.3569   15.8199 Br      1  UNL1       -0.0490
      9 C          63.1777   84.9357   13.8896 C.ar    1  UNL1        0.0067
     10 C          63.0230   85.2086   12.4228 C.ar    1  UNL1        0.0004
     11 C          62.4489   86.5146   11.9593 C.ar    1  UNL1       -0.0009
     12 C          62.2942   86.7875   10.4925 C.ar    1  UNL1        0.0181
     13 C          62.2895   84.8971    7.0734 C.3     1  UNL1        0.2525
     14 O          62.5589   86.0273    8.0222 O.3     1  UNL1       -0.4717
     15 C          60.6225   88.1096    9.0067 C.ar    1  UNL1       -0.0160
     16 C          59.6443   86.9745    8.9385 C.ar    1  UNL1       -0.0039
     17 C          58.5468   86.9906    7.9162 C.ar    1  UNL1       -0.0006
     18 C          58.4274   88.1418    6.9621 C.ar    1  UNL1       -0.0043
     19 C          59.4056   89.2770    7.0302 C.ar    1  UNL1       -0.0222
     20 C          59.2863   90.4282    6.0760 C.3     1  UNL1        0.0310
     21 C          60.5032   89.2609    8.0525 C.ar    1  UNL1       -0.0081
     22 C          62.2436   89.3833   10.5878 C.3     1  UNL1        0.1187
     23 O          63.2432   89.4610    9.4721 O.3     1  UNL1       -0.3819
     24 H          64.1386   89.5038    9.8427 H       1  UNL1        0.2107
     25 C          61.2439   89.3057   11.7034 C.ar    1  UNL1        0.0394
     26 C          59.7806   89.1945   11.3929 C.ar    1  UNL1        0.0012
     27 C          58.7810   89.1169   12.5085 C.ar    1  UNL1        0.0031
     28 C          59.2446   89.1504   13.9347 C.ar    1  UNL1        0.0400
     29 C          60.7078   89.2616   14.2452 C.ar    1  UNL1        0.1721
     30 C          61.7076   89.3392   13.1295 C.ar    1  UNL1        0.1705
     31 O          63.1708   89.4503   13.4401 O.3     1  UNL1       -0.4686
     32 C          63.6344   89.4839   14.8662 C.3     1  UNL1        0.2526
     33 C          62.6348   89.4062   15.9819 C.3     1  UNL1        0.2526
     34 O          61.1715   89.2951   15.6713 O.3     1  UNL1       -0.4684
     35 C          62.7670   90.6732   11.1465 C.3     1  UNL1        0.0492
     36 C          63.7815   91.4667   10.3777 C.3     1  UNL1        0.0750
     37 N          64.8278   92.2549   11.1087 N.3     1  UNL1       -0.2702
     38 C          65.6720   93.2489   10.3675 C.3     1  UNL1        0.0897
     39 C          65.0299   92.0490   12.5806 C.3     1  UNL1        0.0897
@<TRIPOS>BOND
     1    13    14    1
     2    14     2    1
     3     2     3   ar
     4     3     4   ar
     5     4     5   ar
     6     5     6   ar
     7     6     7   ar
     8     7     8    1
     9     7     9   ar
    10     9    10   ar
    11    10    11   ar
    12    11    12   ar
    13     1    12    1
    14     1    15    1
    15    15    16   ar
    16    16    17   ar
    17    17    18   ar
    18    18    19   ar
    19    19    20    1
    20    19    21   ar
    21     1    22    1
    22    22    23    1
    23    22    35    1
    24    35    36    1
    25    36    37    1
    26    37    38    1
    27    37    39    1
    28    22    25    1
    29    25    26   ar
    30    26    27   ar
    31    27    28   ar
    32    28    29   ar
    33    29    30   ar
    34    30    31    1
    35    31    32    1
    36    32    33    1
    37    33    34    1
    38    12     2   ar
    39    21    15   ar
    40    30    25   ar
    41    10     4   ar
    42    34    29    1
    43    23    24    1
@<TRIPOS>MOLECULE
*****
 39 43 0 0 0
SMALL
GASTEIGER

@<TRIPOS>ATOM
      1 C          63.1220   88.8101   12.0586 C.3     1  UNL1        0.0761
      2 C          60.7456   88.7973   11.0086 C.ar    1  UNL1        0.1351
      3 C          59.7812   88.2789    9.9833 C.ar    1  UNL1        0.0366
      4 C          60.2288   87.2549    8.9827 C.ar    1  UNL1        0.0030
      5 C          59.2644   86.7365    7.9574 C.ar    1  UNL1        0.0006
      6 C          59.7120   85.7126    6.9569 C.ar    1  UNL1        0.0067
      7 C          61.1240   85.2070    6.9817 C.ar    1  UNL1        0.0346
      8 BR         61.5716   84.1829    5.9811 Br      1  UNL1       -0.0490
      9 C          62.0884   85.7253    8.0069 C.ar    1  UNL1        0.0067
     10 C          61.6408   86.7493    9.0075 C.ar    1  UNL1        0.0004
     11 C          62.6052   87.2677   10.0328 C.ar    1  UNL1       -0.0009
     12 C          62.1576   88.2917   11.0333 C.ar    1  UNL1        0.0181
     13 C          59.1966   90.7784   11.6613 C.3     1  UNL1        0.2525
     14 O          60.2980   89.8213   12.0092 O.3     1  UNL1       -0.4717
     15 C          63.6719   87.8870   13.1054 C.ar    1  UNL1       -0.0160
     16 C          64.6551   88.3995   14.1156 C.ar    1  UNL1       -0.0039
     17 C          65.2049   87.4764   15.1623 C.ar    1  UNL1       -0.0006
     18 C          64.7716   86.0409   15.1988 C.ar    1  UNL1       -0.0043
     19 C          63.7884   85.5283   14.1885 C.ar    1  UNL1       -0.0222
     20 C          63.3550   84.0928   14.2250 C.3     1  UNL1        0.0310
     21 C          63.2385   86.4514   13.1418 C.ar    1  UNL1       -0.0081
     22 C          63.5365   90.2515   12.0372 C.3     1  UNL1        0.1187
     23 O          63.6832   90.1871   10.5459 O.3     1  UNL1       -0.3819
     24 H          64.5894   90.4301   10.2993 H       1  UNL1        0.2107
     25 C          63.3898   90.3158   13.5286 C.ar    1  UNL1        0.0394
     26 C          62.2581   89.5980   14.2026 C.ar    1  UNL1        0.0012
     27 C          62.1114   89.6624   15.6940 C.ar    1  UNL1        0.0031
     28 C          63.0963   90.4445   16.5115 C.ar    1  UNL1        0.0400
     29 C          64.2279   91.1622   15.8376 C.ar    1  UNL1        0.1721
     30 C          64.3747   91.0979   14.3461 C.ar    1  UNL1        0.1705
     31 O          65.5063   91.8157   13.6722 O.3     1  UNL1       -0.4686
     32 C          66.4912   92.5978   14.4897 C.3     1  UNL1        0.2526
     33 C          66.3445   92.6621   15.9811 C.3     1  UNL1        0.2526
     34 O          65.2128   91.9444   16.6551 O.3     1  UNL1       -0.4684
     35 C          63.9510   91.6929   12.0158 C.3     1  UNL1        0.0492
     36 C          64.4332   92.3157   10.7393 C.3     1  UNL1        0.0750
     37 N          65.7146   93.0955   10.7225 N.3     1  UNL1       -0.2702
     38 C          67.0183   92.3909   10.4902 C.3     1  UNL1        0.0897
     39 C          65.6922   94.5797   10.9381 C.3     1  UNL1        0.0897
@<TRIPOS>BOND
     1    13    14    1
     2    14     2    1
     3     2     3   ar
     4     3     4   ar
     5     4     5   ar
     6     5     6   ar
     7     6     7   ar
     8     7     8    1
     9     7     9   ar
    10     9    10   ar
    11    10    11   ar
    12    11    12   ar
    13     1    12    1
    14     1    15    1
    15    15    16   ar
    16    16    17   ar
    17    17    18   ar
    18    18    19   ar
    19    19    20    1
    20    19    21   ar
    21     1    22    1
    22    22    23    1
    23    22    35    1
    24    35    36    1
    25    36    37    1
    26    37    38    1
    27    37    39    1
    28    22    25    1
    29    25    26   ar
    30    26    27   ar
    31    27    28   ar
    32    28    29   ar
    33    29    30   ar
    34    30    31    1
    35    31    32    1
    36    32    33    1
    37    33    34    1
    38    12     2   ar
    39    21    15   ar
    40    30    25   ar
    41    10     4   ar
    42    34    29    1
    43    23    24    1
@<TRIPOS>MOLECULE
*****
 39 43 0 0 0
SMALL
GASTEIGER

@<TRIPOS>ATOM
      1 C          62.9087   89.6846   12.7616 C.3     1  UNL1        0.0761
      2 C          64.2181   91.6329   13.8749 C.ar    1  UNL1        0.1351
      3 C          65.1408   92.8101   13.7611 C.ar    1  UNL1        0.0366
      4 C          65.6769   93.2161   12.4203 C.ar    1  UNL1        0.0030
      5 C          66.5995   94.3932   12.3065 C.ar    1  UNL1        0.0006
      6 C          67.1355   94.7992   10.9657 C.ar    1  UNL1        0.0067
      7 C          66.7488   94.0280    9.7386 C.ar    1  UNL1        0.0346
      8 BR         67.2848   94.4340    8.3977 Br      1  UNL1       -0.0490
      9 C          65.8261   92.8509    9.8523 C.ar    1  UNL1        0.0067
     10 C          65.2901   92.4449   11.1932 C.ar    1  UNL1        0.0004
     11 C          64.3674   91.2678   11.3070 C.ar    1  UNL1       -0.0009
     12 C          63.8314   90.8618   12.6478 C.ar    1  UNL1        0.0181
     13 C          64.2514   91.8309   16.4652 C.3     1  UNL1        0.2525
     14 O          63.6821   91.2269   15.2158 O.3     1  UNL1       -0.4717
     15 C          61.4663   89.8220   12.3732 C.ar    1  UNL1       -0.0160
     16 C          61.0838   90.6714   11.1975 C.ar    1  UNL1       -0.0039
     17 C          59.6415   90.8087   10.8091 C.ar    1  UNL1       -0.0006
     18 C          58.5817   90.0967   11.5963 C.ar    1  UNL1       -0.0043
     19 C          58.9642   89.2472   12.7720 C.ar    1  UNL1       -0.0222
     20 C          57.9044   88.5352   13.5592 C.3     1  UNL1        0.0310
     21 C          60.4065   89.1099   13.1605 C.ar    1  UNL1       -0.0081
     22 C          63.4282   88.3702   13.2638 C.3     1  UNL1        0.1187
     23 O          63.8461   89.0255   14.5467 O.3     1  UNL1       -0.3819
     24 H          64.7982   88.8967   14.6804 H       1  UNL1        0.2107
     25 C          63.0104   87.7149   11.9809 C.ar    1  UNL1        0.0394
     26 C          62.7771   88.5471   10.7548 C.ar    1  UNL1        0.0012
     27 C          62.3593   87.8917    9.4719 C.ar    1  UNL1        0.0031
     28 C          62.1747   86.4042    9.4149 C.ar    1  UNL1        0.0400
     29 C          62.4080   85.5720   10.6409 C.ar    1  UNL1        0.1721
     30 C          62.8258   86.2273   11.9239 C.ar    1  UNL1        0.1705
     31 O          63.0591   85.3952   13.1498 O.3     1  UNL1       -0.4686
     32 C          62.8745   83.9076   13.0929 C.3     1  UNL1        0.2526
     33 C          62.4567   83.2523   11.8099 C.3     1  UNL1        0.2526
     34 O          62.2234   84.0845   10.5839 O.3     1  UNL1       -0.4684
     35 C          63.9478   87.0557   13.7660 C.3     1  UNL1        0.0492
     36 C          64.4106   86.9257   15.1868 C.3     1  UNL1        0.0750
     37 N          63.4164   86.6597   16.2781 N.3     1  UNL1       -0.2702
     38 C          62.8431   85.2844   16.4515 C.3     1  UNL1        0.0897
     39 C          62.9955   87.7689   17.1959 C.3     1  UNL1        0.0897
@<TRIPOS>BOND
     1    13    14    1
     2    14     2    1
     3     2     3   ar
     4     3     4   ar
     5     4     5   ar
     6     5     6   ar
     7     6     7   ar
     8     7     8    1
     9     7     9   ar
    10     9    10   ar
    11    10    11   ar
    12    11    12   ar
    13     1    12    1
    14     1    15    1
    15    15    16   ar
    16    16    17   ar
    17    17    18   ar
    18    18    19   ar
    19    19    20    1
    20    19    21   ar
    21     1    22    1
    22    22    23    1
    23    22    35    1
    24    35    36    1
    25    36    37    1
    26    37    38    1
    27    37    39    1
    28    22    25    1
    29    25    26   ar
    30    26    27   ar
    31    27    28   ar
    32    28    29   ar
    33    29    30   ar
    34    30    31    1
    35    31    32    1
    36    32    33    1
    37    33    34    1
    38    12     2   ar
    39    21    15   ar
    40    30    25   ar
    41    10     4   ar
    42    34    29    1
    43    23    24    1
