@<TRIPOS>MOLECULE
*****
 31 34 0 0 0
SMALL
GASTEIGER

@<TRIPOS>ATOM
      1 C          61.9956   87.5018   10.6481 C.3     1  UNL1        0.1166
      2 C          60.9808   87.4232    9.5463 C.ar    1  UNL1       -0.0162
      3 C          60.3158   86.2581    8.8754 C.ar    1  UNL1       -0.0041
      4 C          59.3192   86.4926    7.7792 C.ar    1  UNL1       -0.0003
      5 C          58.9876   87.8923    7.3539 C.ar    1  UNL1       -0.0003
      6 C          59.6526   89.0574    8.0248 C.ar    1  UNL1       -0.0045
      7 C          60.6492   88.8229    9.1210 C.ar    1  UNL1       -0.0240
      8 C          61.4591   89.7664    9.9599 C.3     1  UNL1        0.0464
      9 C          62.2912   88.9499   10.9037 C.3     1  UNL1        0.0888
     10 N          62.7037   85.0023   10.6892 N.am    1  UNL1       -0.3026
     11 C          62.6075   86.3366   11.3679 C.2     1  UNL1        0.2278
     12 O          63.1230   86.5056   12.7663 O.2     1  UNL1       -0.2747
     13 H          62.3653   84.8913    9.7714 H       1  UNL1        0.1495
     14 C          63.3155   83.8371   11.4090 C.3     1  UNL1        0.1067
     15 C          62.4444   82.7231   11.9090 C.3     1  UNL1        0.0937
     16 C          63.0066   83.3722   14.3611 C.3     1  UNL1        0.0897
     17 N          62.3564   82.4423   13.3798 N.3     1  UNL1       -0.2689
     18 C          61.6185   81.2317   13.8694 C.3     1  UNL1        0.0897
     19 N          63.2506   89.4873   11.9240 N.am    1  UNL1       -0.3001
     20 C          63.8795   90.8345   11.7258 C.2     1  UNL1        0.2636
     21 O          63.5490   91.6445   10.5073 O.2     1  UNL1       -0.2685
     22 H          63.4674   88.9556   12.7238 H       1  UNL1        0.1498
     23 C          64.8388   91.3719   12.7461 C.2     1  UNL1        0.1341
     24 C          66.2522   91.8022   12.4867 C.2     1  UNL1        0.0249
     25 C          66.8401   92.2695   13.7853 C.2     1  UNL1        0.0155
     26 C          68.1958   92.8056   14.1379 C.2     1  UNL1        0.0009
     27 C          68.5016   93.2002   15.5524 C.2     1  UNL1       -0.0041
     28 C          67.4516   93.0586   16.6142 C.2     1  UNL1       -0.0198
     29 C          66.0959   92.5225   16.2616 C.3     1  UNL1        0.0717
     30 C          65.7901   92.1279   14.8471 C.2     1  UNL1        0.0635
     31 N          64.5532   91.5731   14.2048 N.2     1  UNL1       -0.2448
@<TRIPOS>BOND
     1    16    17    1
     2    17    18    1
     3    17    15    1
     4    15    14    1
     5    14    10    1
     6    10    11   am
     7    11    12    2
     8     1    11    1
     9     1     2    1
    10     2     3   ar
    11     3     4   ar
    12     4     5   ar
    13     5     6   ar
    14     6     7   ar
    15     7     8    1
    16     8     9    1
    17     9    19    1
    18    19    20   am
    19    20    21    2
    20    20    23    1
    21    23    24    2
    22    24    25    1
    23    25    26    2
    24    26    27    1
    25    27    28    2
    26    28    29    1
    27    29    30    1
    28    30    31    2
    29     9     1    1
    30    31    23    1
    31     7     2   ar
    32    30    25    1
    33    10    13    1
    34    19    22    1
@<TRIPOS>MOLECULE
*****
 31 34 0 0 0
SMALL
GASTEIGER

@<TRIPOS>ATOM
      1 C          64.6116   90.7214   14.6726 C.3     1  UNL1        0.1166
      2 C          65.6559   91.7324   15.0433 C.ar    1  UNL1       -0.0162
      3 C          66.2071   92.1660   16.3692 C.ar    1  UNL1       -0.0041
      4 C          67.2698   93.2228   16.4302 C.ar    1  UNL1       -0.0003
      5 C          67.7813   93.8460   15.1653 C.ar    1  UNL1       -0.0003
      6 C          67.2301   93.4123   13.8394 C.ar    1  UNL1       -0.0045
      7 C          66.1674   92.3555   13.7784 C.ar    1  UNL1       -0.0240
      8 C          65.4392   91.7297   12.6260 C.3     1  UNL1        0.0464
      9 C          64.4777   90.7197   13.1786 C.3     1  UNL1        0.0888
     10 N          63.8354   88.3717   15.4643 N.am    1  UNL1       -0.3026
     11 C          63.8373   89.8628   15.6282 C.2     1  UNL1        0.2278
     12 O          63.0648   90.4951   16.7477 O.2     1  UNL1       -0.2747
     13 H          64.3424   87.9566   14.7295 H       1  UNL1        0.1495
     14 C          63.0610   87.5131   16.4199 C.3     1  UNL1        0.1067
     15 C          63.4062   86.0614   16.5724 C.3     1  UNL1        0.0937
     16 C          62.1075   84.1778   15.3411 C.3     1  UNL1        0.0897
     17 N          63.2647   85.1302   15.4050 N.3     1  UNL1       -0.2689
     18 C          64.2804   85.1514   14.3014 C.3     1  UNL1        0.0897
     19 N          63.5459   89.8591   12.3778 N.am    1  UNL1       -0.3001
     20 C          63.1612   90.2638   10.9857 C.2     1  UNL1        0.2636
     21 O          63.7083   91.5291   10.3942 O.2     1  UNL1       -0.2685
     22 H          63.1868   89.0287   12.7660 H       1  UNL1        0.1498
     23 C          62.2294   89.4033   10.1849 C.2     1  UNL1        0.1341
     24 C          62.3154   87.9132   10.0345 C.2     1  UNL1        0.0249
     25 C          61.1871   87.4708    9.1506 C.2     1  UNL1        0.0155
     26 C          60.7718   86.1173    8.6551 C.2     1  UNL1        0.0009
     27 C          59.5732   85.9803    7.7637 C.2     1  UNL1       -0.0041
     28 C          58.7900   87.1968    7.3678 C.2     1  UNL1       -0.0198
     29 C          59.2053   88.5503    7.8633 C.3     1  UNL1        0.0717
     30 C          60.4039   88.6873    8.7547 C.2     1  UNL1        0.0635
     31 N          61.0481   89.8816    9.3940 N.2     1  UNL1       -0.2448
@<TRIPOS>BOND
     1    16    17    1
     2    17    18    1
     3    17    15    1
     4    15    14    1
     5    14    10    1
     6    10    11   am
     7    11    12    2
     8     1    11    1
     9     1     2    1
    10     2     3   ar
    11     3     4   ar
    12     4     5   ar
    13     5     6   ar
    14     6     7   ar
    15     7     8    1
    16     8     9    1
    17     9    19    1
    18    19    20   am
    19    20    21    2
    20    20    23    1
    21    23    24    2
    22    24    25    1
    23    25    26    2
    24    26    27    1
    25    27    28    2
    26    28    29    1
    27    29    30    1
    28    30    31    2
    29     9     1    1
    30    31    23    1
    31     7     2   ar
    32    30    25    1
    33    10    13    1
    34    19    22    1
@<TRIPOS>MOLECULE
*****
 31 34 0 0 0
SMALL
GASTEIGER

@<TRIPOS>ATOM
      1 C          61.9357   87.7940   10.1807 C.3     1  UNL1        0.1166
      2 C          60.8056   87.5715    9.2197 C.ar    1  UNL1       -0.0162
      3 C          60.0603   86.3340    8.8160 C.ar    1  UNL1       -0.0041
      4 C          58.9519   86.4209    7.8092 C.ar    1  UNL1       -0.0003
      5 C          58.5888   87.7454    7.2060 C.ar    1  UNL1       -0.0003
      6 C          59.3340   88.9830    7.6097 C.ar    1  UNL1       -0.0045
      7 C          60.4424   88.8960    8.6166 C.ar    1  UNL1       -0.0240
      8 C          61.3481   89.9371    9.2048 C.3     1  UNL1        0.0464
      9 C          62.2710   89.2560   10.1715 C.3     1  UNL1        0.0888
     10 N          62.9743   87.0226   12.4338 N.am    1  UNL1       -0.3026
     11 C          62.6117   86.7396   11.0060 C.2     1  UNL1        0.2278
     12 O          62.9253   85.4022   10.4037 O.2     1  UNL1       -0.2747
     13 H          62.7685   87.9004   12.8292 H       1  UNL1        0.1495
     14 C          63.6503   85.9682   13.2591 C.3     1  UNL1        0.1067
     15 C          64.0260   86.2563   14.6824 C.3     1  UNL1        0.0937
     16 C          62.5046   84.3833   15.6454 C.3     1  UNL1        0.0897
     17 N          63.1956   85.7053   15.8035 N.3     1  UNL1       -0.2689
     18 C          63.0561   86.4763   17.0826 C.3     1  UNL1        0.0897
     19 N          63.3412   89.9203   10.9859 N.am    1  UNL1       -0.3001
     20 C          63.0966   90.2350   12.4319 C.2     1  UNL1        0.2636
     21 O          61.7818   89.8854   13.0637 O.2     1  UNL1       -0.2685
     22 H          64.2042   90.1498   10.5713 H       1  UNL1        0.1498
     23 C          64.1669   90.8993   13.2464 C.2     1  UNL1        0.1341
     24 C          64.1864   91.0264   14.7409 C.2     1  UNL1        0.0249
     25 C          65.4371   91.7588   15.1275 C.2     1  UNL1        0.0155
     26 C          65.9873   92.1713   16.4605 C.2     1  UNL1        0.0009
     27 C          67.2908   92.9094   16.5380 C.2     1  UNL1       -0.0041
     28 C          68.0442   93.2349   15.2825 C.2     1  UNL1       -0.0198
     29 C          67.4941   92.8224   13.9494 C.3     1  UNL1        0.0717
     30 C          66.1905   92.0843   13.8719 C.2     1  UNL1        0.0635
     31 N          65.4055   91.5531   12.7094 N.2     1  UNL1       -0.2448
@<TRIPOS>BOND
     1    16    17    1
     2    17    18    1
     3    17    15    1
     4    15    14    1
     5    14    10    1
     6    10    11   am
     7    11    12    2
     8     1    11    1
     9     1     2    1
    10     2     3   ar
    11     3     4   ar
    12     4     5   ar
    13     5     6   ar
    14     6     7   ar
    15     7     8    1
    16     8     9    1
    17     9    19    1
    18    19    20   am
    19    20    21    2
    20    20    23    1
    21    23    24    2
    22    24    25    1
    23    25    26    2
    24    26    27    1
    25    27    28    2
    26    28    29    1
    27    29    30    1
    28    30    31    2
    29     9     1    1
    30    31    23    1
    31     7     2   ar
    32    30    25    1
    33    10    13    1
    34    19    22    1
@<TRIPOS>MOLECULE
*****
 31 34 0 0 0
SMALL
GASTEIGER

@<TRIPOS>ATOM
      1 C          62.8906   83.1848   11.7296 C.3     1  UNL1        0.1166
      2 C          62.7891   81.6884   11.7475 C.ar    1  UNL1       -0.0162
      3 C          62.8721   80.6636   10.6553 C.ar    1  UNL1       -0.0041
      4 C          62.7306   79.2065   10.9817 C.ar    1  UNL1       -0.0003
      5 C          62.5060   78.7740   12.4004 C.ar    1  UNL1       -0.0003
      6 C          62.4230   79.7988   13.4926 C.ar    1  UNL1       -0.0045
      7 C          62.5645   81.2559   13.1661 C.ar    1  UNL1       -0.0240
      8 C          62.5272   82.4852   14.0250 C.3     1  UNL1        0.0464
      9 C          62.7287   83.6773   13.1372 C.3     1  UNL1        0.0888
     10 N          62.2432   85.2348   10.2705 N.am    1  UNL1       -0.3026
     11 C          63.1146   84.0389   10.5170 C.2     1  UNL1        0.2278
     12 O          64.2098   83.6971    9.5508 O.2     1  UNL1       -0.2747
     13 H          61.5243   85.4591   10.9046 H       1  UNL1        0.1495
     14 C          62.4672   86.0888    9.0579 C.3     1  UNL1        0.1067
     15 C          61.3634   86.2790    8.0603 C.3     1  UNL1        0.0937
     16 C          60.4416   88.3919    9.2587 C.3     1  UNL1        0.0897
     17 N          60.2232   87.2029    8.3705 N.3     1  UNL1       -0.2689
     18 C          58.8646   86.9380    7.7926 C.3     1  UNL1        0.0897
     19 N          62.7625   85.1103   13.5793 N.am    1  UNL1       -0.3001
     20 C          63.9979   85.6681   14.2216 C.2     1  UNL1        0.2636
     21 O          65.1996   84.7929   14.4218 O.2     1  UNL1       -0.2685
     22 H          61.9738   85.6847   13.4479 H       1  UNL1        0.1498
     23 C          64.0316   87.1010   14.6637 C.2     1  UNL1        0.1341
     24 C          64.6851   88.2348   13.9304 C.2     1  UNL1        0.0249
     25 C          64.4751   89.4863   14.7303 C.2     1  UNL1        0.0155
     26 C          64.8959   90.9074   14.4994 C.2     1  UNL1        0.0009
     27 C          64.5336   91.9682   15.4960 C.2     1  UNL1       -0.0041
     28 C          63.7505   91.6079   16.7236 C.2     1  UNL1       -0.0198
     29 C          63.3297   90.1868   16.9545 C.3     1  UNL1        0.0717
     30 C          63.6920   89.1260   15.9578 C.2     1  UNL1        0.0635
     31 N          63.4180   87.6518   15.9167 N.2     1  UNL1       -0.2448
@<TRIPOS>BOND
     1    16    17    1
     2    17    18    1
     3    17    15    1
     4    15    14    1
     5    14    10    1
     6    10    11   am
     7    11    12    2
     8     1    11    1
     9     1     2    1
    10     2     3   ar
    11     3     4   ar
    12     4     5   ar
    13     5     6   ar
    14     6     7   ar
    15     7     8    1
    16     8     9    1
    17     9    19    1
    18    19    20   am
    19    20    21    2
    20    20    23    1
    21    23    24    2
    22    24    25    1
    23    25    26    2
    24    26    27    1
    25    27    28    2
    26    28    29    1
    27    29    30    1
    28    30    31    2
    29     9     1    1
    30    31    23    1
    31     7     2   ar
    32    30    25    1
    33    10    13    1
    34    19    22    1
@<TRIPOS>MOLECULE
*****
 31 34 0 0 0
SMALL
GASTEIGER

@<TRIPOS>ATOM
      1 C          62.9253   84.8352   12.2564 C.3     1  UNL1        0.1166
      2 C          62.5505   83.5167   12.8656 C.ar    1  UNL1       -0.0162
      3 C          61.8853   82.2998   12.2940 C.ar    1  UNL1       -0.0041
      4 C          61.6348   81.1038   13.1639 C.ar    1  UNL1       -0.0003
      5 C          62.0494   81.1246   14.6053 C.ar    1  UNL1       -0.0003
      6 C          62.7146   82.3415   15.1769 C.ar    1  UNL1       -0.0045
      7 C          62.9652   83.5375   14.3070 C.ar    1  UNL1       -0.0240
      8 C          63.5961   84.8689   14.5886 C.3     1  UNL1        0.0464
      9 C          63.5715   85.6709   13.3213 C.3     1  UNL1        0.0888
     10 N          61.7727   86.3878   10.5211 N.am    1  UNL1       -0.3026
     11 C          62.6943   85.2459   10.8323 C.2     1  UNL1        0.2278
     12 O          63.3849   84.5148    9.7195 O.2     1  UNL1       -0.2747
     13 H          61.3194   86.8677   11.2515 H       1  UNL1        0.1495
     14 C          61.5417   86.7985    9.0970 C.3     1  UNL1        0.1067
     15 C          60.7812   88.0550    8.7929 C.3     1  UNL1        0.0937
     16 C          59.3188   89.2384    7.0008 C.3     1  UNL1        0.0897
     17 N          59.6393   88.0238    7.8207 N.3     1  UNL1       -0.2689
     18 C          58.8178   86.7780    7.6684 C.3     1  UNL1        0.0897
     19 N          64.1002   87.0641   13.1491 N.am    1  UNL1       -0.3001
     20 C          64.0774   88.0228   14.3024 C.2     1  UNL1        0.2636
     21 O          63.5257   87.5885   15.6280 O.2     1  UNL1       -0.2685
     22 H          64.4622   87.3491   12.2791 H       1  UNL1        0.1498
     23 C          64.6061   89.4160   14.1302 C.2     1  UNL1        0.1341
     24 C          64.4572   90.2705   12.9064 C.2     1  UNL1        0.0249
     25 C          65.1356   91.5818   13.1714 C.2     1  UNL1        0.0155
     26 C          65.3095   92.8103   12.3285 C.2     1  UNL1        0.0009
     27 C          66.0514   93.9947   12.8732 C.2     1  UNL1       -0.0041
     28 C          66.6196   93.9506   14.2607 C.2     1  UNL1       -0.0198
     29 C          66.4457   92.7221   15.1036 C.3     1  UNL1        0.0717
     30 C          65.7038   91.5377   14.5590 C.2     1  UNL1        0.0635
     31 N          65.3765   90.1992   15.1515 N.2     1  UNL1       -0.2448
@<TRIPOS>BOND
     1    16    17    1
     2    17    18    1
     3    17    15    1
     4    15    14    1
     5    14    10    1
     6    10    11   am
     7    11    12    2
     8     1    11    1
     9     1     2    1
    10     2     3   ar
    11     3     4   ar
    12     4     5   ar
    13     5     6   ar
    14     6     7   ar
    15     7     8    1
    16     8     9    1
    17     9    19    1
    18    19    20   am
    19    20    21    2
    20    20    23    1
    21    23    24    2
    22    24    25    1
    23    25    26    2
    24    26    27    1
    25    27    28    2
    26    28    29    1
    27    29    30    1
    28    30    31    2
    29     9     1    1
    30    31    23    1
    31     7     2   ar
    32    30    25    1
    33    10    13    1
    34    19    22    1
@<TRIPOS>MOLECULE
*****
 31 34 0 0 0
SMALL
GASTEIGER

@<TRIPOS>ATOM
      1 C          62.3814   86.9028   11.2977 C.3     1  UNL1        0.1166
      2 C          62.8313   85.6040   11.8983 C.ar    1  UNL1       -0.0162
      3 C          63.2890   85.2423   13.2802 C.ar    1  UNL1       -0.0041
      4 C          63.6853   83.8299   13.5933 C.ar    1  UNL1       -0.0003
      5 C          63.6238   82.7792   12.5246 C.ar    1  UNL1       -0.0003
      6 C          63.1661   83.1408   11.1427 C.ar    1  UNL1       -0.0045
      7 C          62.7699   84.5532   10.8295 C.ar    1  UNL1       -0.0240
      8 C          62.2819   85.2027    9.5685 C.3     1  UNL1        0.0464
      9 C          62.0418   86.6548    9.8579 C.3     1  UNL1        0.0888
     10 N          63.4543   88.7256   12.8065 N.am    1  UNL1       -0.3026
     11 C          62.2875   88.2186   12.0118 C.2     1  UNL1        0.2278
     12 O          61.0269   89.0274   11.9312 O.2     1  UNL1       -0.2747
     13 H          64.2818   88.1948   12.8594 H       1  UNL1        0.1495
     14 C          63.3604   90.0414   13.5205 C.3     1  UNL1        0.1067
     15 C          63.8169   91.2980   12.8404 C.3     1  UNL1        0.0937
     16 C          65.7119   93.0289   12.4361 C.3     1  UNL1        0.0897
     17 N          65.0636   91.9913   13.3041 N.3     1  UNL1       -0.2689
     18 C          65.6621   91.6471   14.6358 C.3     1  UNL1        0.0897
     19 N          61.5488   87.6791    8.8792 N.am    1  UNL1       -0.3001
     20 C          60.1166   87.6624    8.4338 C.2     1  UNL1        0.2636
     21 O          59.1773   86.6215    8.9671 O.2     1  UNL1       -0.2685
     22 H          62.1652   88.3623    8.5292 H       1  UNL1        0.1498
     23 C          59.6235   88.6867    7.4552 C.2     1  UNL1        0.1341
     24 C          60.4771   89.6344    6.6656 C.2     1  UNL1        0.0249
     25 C          59.5714   90.4765    5.8167 C.2     1  UNL1        0.0155
     26 C          59.8510   91.5771    4.8367 C.2     1  UNL1        0.0009
     27 C          58.7174   92.2505    4.1216 C.2     1  UNL1       -0.0041
     28 C          57.3042   91.8233    4.3865 C.2     1  UNL1       -0.0198
     29 C          57.0245   90.7227    5.3665 C.3     1  UNL1        0.0717
     30 C          58.1581   90.0493    6.0816 C.2     1  UNL1        0.0635
     31 N          58.1904   88.9431    7.0942 N.2     1  UNL1       -0.2448
@<TRIPOS>BOND
     1    16    17    1
     2    17    18    1
     3    17    15    1
     4    15    14    1
     5    14    10    1
     6    10    11   am
     7    11    12    2
     8     1    11    1
     9     1     2    1
    10     2     3   ar
    11     3     4   ar
    12     4     5   ar
    13     5     6   ar
    14     6     7   ar
    15     7     8    1
    16     8     9    1
    17     9    19    1
    18    19    20   am
    19    20    21    2
    20    20    23    1
    21    23    24    2
    22    24    25    1
    23    25    26    2
    24    26    27    1
    25    27    28    2
    26    28    29    1
    27    29    30    1
    28    30    31    2
    29     9     1    1
    30    31    23    1
    31     7     2   ar
    32    30    25    1
    33    10    13    1
    34    19    22    1
@<TRIPOS>MOLECULE
*****
 31 34 0 0 0
SMALL
GASTEIGER

@<TRIPOS>ATOM
      1 C          60.7960   93.5996    1.7363 C.3     1  UNL1        0.1166
      2 C          60.4192   92.7509    2.9144 C.ar    1  UNL1       -0.0162
      3 C          59.1323   92.5960    3.6692 C.ar    1  UNL1       -0.0041
      4 C          59.0533   91.6504    4.8308 C.ar    1  UNL1       -0.0003
      5 C          60.2613   90.8595    5.2376 C.ar    1  UNL1       -0.0003
      6 C          61.5482   91.0144    4.4828 C.ar    1  UNL1       -0.0045
      7 C          61.6272   91.9601    3.3212 C.ar    1  UNL1       -0.0240
      8 C          62.7505   92.3200    2.3945 C.3     1  UNL1        0.0464
      9 C          62.2368   93.3333    1.4150 C.3     1  UNL1        0.0888
     10 N          59.1032   94.0723   -0.1771 N.am    1  UNL1       -0.3026
     11 C          59.8909   94.5481    1.0075 C.2     1  UNL1        0.2278
     12 O          59.7733   95.9722    1.4632 O.2     1  UNL1       -0.2747
     13 H          59.1803   93.1375   -0.4763 H       1  UNL1        0.1495
     14 C          58.1980   95.0207   -0.9059 C.3     1  UNL1        0.1067
     15 C          57.4910   94.5749   -2.1514 C.3     1  UNL1        0.0937
     16 C          54.9065   94.5883   -1.8859 C.3     1  UNL1        0.0897
     17 N          56.1916   93.8324   -2.0511 N.3     1  UNL1       -0.2689
     18 C          56.1772   92.3338   -2.1161 C.3     1  UNL1        0.0897
     19 N          63.0254   93.9687    0.3085 N.am    1  UNL1       -0.3001
     20 C          62.7401   93.6075   -1.1190 C.2     1  UNL1        0.2636
     21 O          61.6660   92.6107   -1.4402 O.2     1  UNL1       -0.2685
     22 H          63.7303   94.6229    0.5193 H       1  UNL1        0.1498
     23 C          63.5287   94.2429   -2.2255 C.2     1  UNL1        0.1341
     24 C          63.6019   93.7622   -3.6446 C.2     1  UNL1        0.0249
     25 C          64.5011   94.6929   -4.4033 C.2     1  UNL1        0.0155
     26 C          64.9428   94.7153   -5.8366 C.2     1  UNL1        0.0009
     27 C          65.8670   95.7934   -6.3197 C.2     1  UNL1       -0.0041
     28 C          66.3494   96.8491   -5.3696 C.2     1  UNL1       -0.0198
     29 C          65.9077   96.8267   -3.9364 C.3     1  UNL1        0.0717
     30 C          64.9835   95.7486   -3.4532 C.2     1  UNL1        0.0635
     31 N          64.3825   95.4705   -2.1073 N.2     1  UNL1       -0.2448
@<TRIPOS>BOND
     1    16    17    1
     2    17    18    1
     3    17    15    1
     4    15    14    1
     5    14    10    1
     6    10    11   am
     7    11    12    2
     8     1    11    1
     9     1     2    1
    10     2     3   ar
    11     3     4   ar
    12     4     5   ar
    13     5     6   ar
    14     6     7   ar
    15     7     8    1
    16     8     9    1
    17     9    19    1
    18    19    20   am
    19    20    21    2
    20    20    23    1
    21    23    24    2
    22    24    25    1
    23    25    26    2
    24    26    27    1
    25    27    28    2
    26    28    29    1
    27    29    30    1
    28    30    31    2
    29     9     1    1
    30    31    23    1
    31     7     2   ar
    32    30    25    1
    33    10    13    1
    34    19    22    1
