@<TRIPOS>MOLECULE
*****
 24 27 0 0 0
SMALL
GASTEIGER

@<TRIPOS>ATOM
      1 C          61.9944   87.0254   10.9291 C.ar    1  UNL1        0.0001
      2 C          61.1152   87.3006    9.7453 C.ar    1  UNL1        0.0000
      3 C          60.4941   86.1621    8.9916 C.ar    1  UNL1        0.0000
      4 C          59.6150   86.4374    7.8078 C.ar    1  UNL1        0.0000
      5 C          59.3568   87.8510    7.3778 C.ar    1  UNL1        0.0000
      6 C          59.9778   88.9895    8.1316 C.ar    1  UNL1        0.0000
      7 C          60.8570   88.7143    9.3153 C.ar    1  UNL1        0.0000
      8 C          61.4781   89.8528   10.0691 C.ar    1  UNL1        0.0000
      9 C          62.3573   89.5776   11.2529 C.ar    1  UNL1        0.0000
     10 C          62.9783   90.7161   12.0067 C.ar    1  UNL1        0.0000
     11 C          63.8575   90.4409   13.1904 C.ar    1  UNL1        0.0000
     12 C          64.1156   89.0272   13.6204 C.ar    1  UNL1        0.0000
     13 C          63.4946   87.8887   12.8667 C.ar    1  UNL1        0.0000
     14 C          62.6154   88.1639   11.6829 C.ar    1  UNL1        0.0000
     15 C          63.3182   84.8039   10.6797 C.2     1  UNL1        0.0435
     16 C          62.2525   85.6118   11.3591 C.2     1  UNL1        0.0033
     17 O          64.4274   82.4920   10.2619 O.2     1  UNL1       -0.2850
     18 C          63.5763   83.3902   11.1097 C.2     1  UNL1        0.2111
     19 C          62.9834   82.8749   12.3876 C.ar    1  UNL1        0.0961
     20 C          62.2225   81.5927   12.5523 C.ar    1  UNL1        0.0218
     21 C          61.8161   81.4765   13.9916 C.ar    1  UNL1        0.0200
     22 C          62.3259   82.6869   14.7163 C.ar    1  UNL1        0.0725
     23 N          63.0473   83.5511   13.7249 N.ar    1  UNL1       -0.3495
     24 H          63.4857   84.4112   13.9181 H       1  UNL1        0.1661
@<TRIPOS>BOND
     1    17    18    2
     2    18    15    1
     3    15    16    2
     4    16     1    1
     5     1     2   ar
     6     2     3   ar
     7     3     4   ar
     8     4     5   ar
     9     5     6   ar
    10     6     7   ar
    11     7     8   ar
    12     8     9   ar
    13     9    10   ar
    14    10    11   ar
    15    11    12   ar
    16    12    13   ar
    17    13    14   ar
    18    18    19    1
    19    19    20   ar
    20    20    21   ar
    21    21    22   ar
    22    22    23   ar
    23    14     1   ar
    24    23    19   ar
    25     7     2   ar
    26    14     9   ar
    27    23    24    1
@<TRIPOS>MOLECULE
*****
 24 27 0 0 0
SMALL
GASTEIGER

@<TRIPOS>ATOM
      1 C          61.9944   87.0364   10.9281 C.ar    1  UNL1        0.0001
      2 C          62.6135   88.1760   11.6818 C.ar    1  UNL1        0.0000
      3 C          63.4937   87.9023   12.8651 C.ar    1  UNL1        0.0000
      4 C          64.1128   89.0418   13.6188 C.ar    1  UNL1        0.0000
      5 C          63.8518   90.4551   13.1892 C.ar    1  UNL1        0.0000
      6 C          62.9716   90.7288   12.0059 C.ar    1  UNL1        0.0000
      7 C          62.3525   89.5892   11.2522 C.ar    1  UNL1        0.0000
      8 C          61.4722   89.8629   10.0688 C.ar    1  UNL1        0.0000
      9 C          60.8531   88.7234    9.3151 C.ar    1  UNL1        0.0000
     10 C          59.9729   88.9970    8.1317 C.ar    1  UNL1        0.0000
     11 C          59.3538   87.8575    7.3780 C.ar    1  UNL1        0.0000
     12 C          59.6148   86.4442    7.8076 C.ar    1  UNL1        0.0000
     13 C          60.4950   86.1705    8.9910 C.ar    1  UNL1        0.0000
     14 C          61.1142   87.3101    9.7447 C.ar    1  UNL1        0.0000
     15 C          63.3120   84.8125   10.6675 C.2     1  UNL1        0.0435
     16 C          62.2554   85.6232   11.3577 C.2     1  UNL1        0.0033
     17 O          64.4201   82.5008   10.2455 O.2     1  UNL1       -0.2850
     18 C          63.5731   83.3992   11.0971 C.2     1  UNL1        0.2111
     19 C          62.9871   82.8845   12.3785 C.ar    1  UNL1        0.0961
     20 C          62.2123   81.6109   12.5446 C.ar    1  UNL1        0.0218
     21 C          61.8194   81.4922   13.9874 C.ar    1  UNL1        0.0200
     22 C          62.3514   82.6925   14.7129 C.ar    1  UNL1        0.0725
     23 N          63.0731   83.5530   13.7185 N.ar    1  UNL1       -0.3495
     24 H          63.5240   84.4066   13.9115 H       1  UNL1        0.1661
@<TRIPOS>BOND
     1    17    18    2
     2    18    15    1
     3    15    16    2
     4    16     1    1
     5     1     2   ar
     6     2     3   ar
     7     3     4   ar
     8     4     5   ar
     9     5     6   ar
    10     6     7   ar
    11     7     8   ar
    12     8     9   ar
    13     9    10   ar
    14    10    11   ar
    15    11    12   ar
    16    12    13   ar
    17    13    14   ar
    18    18    19    1
    19    19    20   ar
    20    20    21   ar
    21    21    22   ar
    22    22    23   ar
    23    14     1   ar
    24    23    19   ar
    25     7     2   ar
    26    14     9   ar
    27    23    24    1
@<TRIPOS>MOLECULE
*****
 24 27 0 0 0
SMALL
GASTEIGER

@<TRIPOS>ATOM
      1 C          62.8257   85.1883   12.0573 C.ar    1  UNL1        0.0001
      2 C          63.0516   83.8179   12.6240 C.ar    1  UNL1        0.0000
      3 C          62.5677   82.6092   11.8791 C.ar    1  UNL1        0.0000
      4 C          62.7935   81.2389   12.4459 C.ar    1  UNL1        0.0000
      5 C          63.5032   81.0774   13.7574 C.ar    1  UNL1        0.0000
      6 C          63.9871   82.2861   14.5023 C.ar    1  UNL1        0.0000
      7 C          63.7613   83.6564   13.9356 C.ar    1  UNL1        0.0000
      8 C          64.2451   84.8652   14.6804 C.ar    1  UNL1        0.0000
      9 C          64.0193   86.2355   14.1137 C.ar    1  UNL1        0.0000
     10 C          64.5031   87.4443   14.8585 C.ar    1  UNL1        0.0000
     11 C          64.2773   88.8146   14.2918 C.ar    1  UNL1        0.0000
     12 C          63.5676   88.9762   12.9802 C.ar    1  UNL1        0.0000
     13 C          63.0837   87.7675   12.2354 C.ar    1  UNL1        0.0000
     14 C          63.3096   86.3971   12.8021 C.ar    1  UNL1        0.0000
     15 C          62.8849   85.2606    9.4609 C.2     1  UNL1        0.0435
     16 C          62.1160   85.3499   10.7457 C.2     1  UNL1        0.0033
     17 O          62.6999   84.7359    6.9231 O.2     1  UNL1       -0.2850
     18 C          62.1752   85.4222    8.1493 C.2     1  UNL1        0.2111
     19 C          60.9407   86.2701    8.0640 C.ar    1  UNL1        0.0961
     20 C          60.8055   87.6820    8.5523 C.ar    1  UNL1        0.0218
     21 C          59.4060   88.1395    8.2655 C.ar    1  UNL1        0.0200
     22 C          58.6764   87.0104    7.6000 C.ar    1  UNL1        0.0725
     23 N          59.6249   85.8551    7.4755 N.ar    1  UNL1       -0.3495
     24 H          59.4199   84.9783    7.0773 H       1  UNL1        0.1661
@<TRIPOS>BOND
     1    17    18    2
     2    18    15    1
     3    15    16    2
     4    16     1    1
     5     1     2   ar
     6     2     3   ar
     7     3     4   ar
     8     4     5   ar
     9     5     6   ar
    10     6     7   ar
    11     7     8   ar
    12     8     9   ar
    13     9    10   ar
    14    10    11   ar
    15    11    12   ar
    16    12    13   ar
    17    13    14   ar
    18    18    19    1
    19    19    20   ar
    20    20    21   ar
    21    21    22   ar
    22    22    23   ar
    23    14     1   ar
    24    23    19   ar
    25     7     2   ar
    26    14     9   ar
    27    23    24    1
@<TRIPOS>MOLECULE
*****
 24 27 0 0 0
SMALL
GASTEIGER

@<TRIPOS>ATOM
      1 C          63.3441   87.9762   12.6856 C.ar    1  UNL1        0.0001
      2 C          63.5957   86.6336   13.3055 C.ar    1  UNL1        0.0000
      3 C          64.4907   86.5164   14.5034 C.ar    1  UNL1        0.0000
      4 C          64.7422   85.1738   15.1233 C.ar    1  UNL1        0.0000
      5 C          64.0986   83.9484   14.5452 C.ar    1  UNL1        0.0000
      6 C          63.2035   84.0656   13.3473 C.ar    1  UNL1        0.0000
      7 C          62.9520   85.4082   12.7274 C.ar    1  UNL1        0.0000
      8 C          62.0569   85.5254   11.5295 C.ar    1  UNL1        0.0000
      9 C          61.8054   86.8680   10.9096 C.ar    1  UNL1        0.0000
     10 C          60.9103   86.9852    9.7117 C.ar    1  UNL1        0.0000
     11 C          60.6588   88.3277    9.0918 C.ar    1  UNL1        0.0000
     12 C          61.3024   89.5531    9.6699 C.ar    1  UNL1        0.0000
     13 C          62.1975   89.4360   10.8678 C.ar    1  UNL1        0.0000
     14 C          62.4490   88.0933   11.4877 C.ar    1  UNL1        0.0000
     15 C          63.5040   89.7574   14.5701 C.2     1  UNL1        0.0435
     16 C          63.9878   89.2016   13.2637 C.2     1  UNL1        0.0033
     17 O          63.5739   91.6221   16.3779 O.2     1  UNL1       -0.2850
     18 C          64.1476   90.9828   15.1482 C.2     1  UNL1        0.2111
     19 C          65.3649   91.5689   14.4965 C.ar    1  UNL1        0.0961
     20 C          66.7797   91.4132   14.9700 C.ar    1  UNL1        0.0218
     21 C          67.6704   92.1617   14.0231 C.ar    1  UNL1        0.0200
     22 C          66.8060   92.7799   12.9644 C.ar    1  UNL1        0.0725
     23 N          65.3812   92.4136   13.2571 N.ar    1  UNL1       -0.3495
     24 H          64.5947   92.6806   12.7284 H       1  UNL1        0.1661
@<TRIPOS>BOND
     1    17    18    2
     2    18    15    1
     3    15    16    2
     4    16     1    1
     5     1     2   ar
     6     2     3   ar
     7     3     4   ar
     8     4     5   ar
     9     5     6   ar
    10     6     7   ar
    11     7     8   ar
    12     8     9   ar
    13     9    10   ar
    14    10    11   ar
    15    11    12   ar
    16    12    13   ar
    17    13    14   ar
    18    18    19    1
    19    19    20   ar
    20    20    21   ar
    21    21    22   ar
    22    22    23   ar
    23    14     1   ar
    24    23    19   ar
    25     7     2   ar
    26    14     9   ar
    27    23    24    1
@<TRIPOS>MOLECULE
*****
 24 27 0 0 0
SMALL
GASTEIGER

@<TRIPOS>ATOM
      1 C          63.2518   87.8491   12.5220 C.ar    1  UNL1        0.0001
      2 C          62.3360   88.0420   11.3497 C.ar    1  UNL1        0.0000
      3 C          62.1173   89.4150   10.7868 C.ar    1  UNL1        0.0000
      4 C          61.2015   89.6079    9.6146 C.ar    1  UNL1        0.0000
      5 C          60.5044   88.4277    9.0053 C.ar    1  UNL1        0.0000
      6 C          60.7231   87.0547    9.5683 C.ar    1  UNL1        0.0000
      7 C          61.6389   86.8618   10.7405 C.ar    1  UNL1        0.0000
      8 C          61.8576   85.4887   11.3035 C.ar    1  UNL1        0.0000
      9 C          62.7733   85.2959   12.4757 C.ar    1  UNL1        0.0000
     10 C          62.9920   83.9228   13.0387 C.ar    1  UNL1        0.0000
     11 C          63.9078   83.7300   14.2109 C.ar    1  UNL1        0.0000
     12 C          64.6049   84.9102   14.8202 C.ar    1  UNL1        0.0000
     13 C          64.3863   86.2832   14.2572 C.ar    1  UNL1        0.0000
     14 C          63.4704   86.4761   13.0850 C.ar    1  UNL1        0.0000
     15 C          63.3222   89.7583   14.2827 C.2     1  UNL1        0.0435
     16 C          63.9489   89.0293   13.1313 C.2     1  UNL1        0.0033
     17 O          63.4849   91.5585   16.1489 O.2     1  UNL1       -0.2850
     18 C          64.0193   90.9385   14.8920 C.2     1  UNL1        0.2111
     19 C          65.2509   91.4986   14.2442 C.ar    1  UNL1        0.0961
     20 C          66.6574   91.3423   14.7417 C.ar    1  UNL1        0.0218
     21 C          67.5680   92.0605   13.7902 C.ar    1  UNL1        0.0200
     22 C          66.7242   92.6607   12.7049 C.ar    1  UNL1        0.0725
     23 N          65.2922   92.3134   12.9855 N.ar    1  UNL1       -0.3495
     24 H          64.5157   92.5744   12.4393 H       1  UNL1        0.1661
@<TRIPOS>BOND
     1    17    18    2
     2    18    15    1
     3    15    16    2
     4    16     1    1
     5     1     2   ar
     6     2     3   ar
     7     3     4   ar
     8     4     5   ar
     9     5     6   ar
    10     6     7   ar
    11     7     8   ar
    12     8     9   ar
    13     9    10   ar
    14    10    11   ar
    15    11    12   ar
    16    12    13   ar
    17    13    14   ar
    18    18    19    1
    19    19    20   ar
    20    20    21   ar
    21    21    22   ar
    22    22    23   ar
    23    14     1   ar
    24    23    19   ar
    25     7     2   ar
    26    14     9   ar
    27    23    24    1
@<TRIPOS>MOLECULE
*****
 24 27 0 0 0
SMALL
GASTEIGER

@<TRIPOS>ATOM
      1 C          64.2690   90.6239   13.8929 C.ar    1  UNL1        0.0001
      2 C          63.6919   90.5921   12.5086 C.ar    1  UNL1        0.0000
      3 C          62.6428   89.5796   12.1565 C.ar    1  UNL1        0.0000
      4 C          62.0657   89.5478   10.7724 C.ar    1  UNL1        0.0000
      5 C          62.5378   90.5286    9.7403 C.ar    1  UNL1        0.0000
      6 C          63.5870   91.5412   10.0924 C.ar    1  UNL1        0.0000
      7 C          64.1640   91.5729   11.4766 C.ar    1  UNL1        0.0000
      8 C          65.2132   92.5855   11.8287 C.ar    1  UNL1        0.0000
      9 C          65.7902   92.6173   13.2129 C.ar    1  UNL1        0.0000
     10 C          66.8394   93.6299   13.5651 C.ar    1  UNL1        0.0000
     11 C          67.4164   93.6616   14.9493 C.ar    1  UNL1        0.0000
     12 C          66.9443   92.6809   15.9813 C.ar    1  UNL1        0.0000
     13 C          65.8952   91.6683   15.6292 C.ar    1  UNL1        0.0000
     14 C          65.3181   91.6365   14.2450 C.ar    1  UNL1        0.0000
     15 C          64.1792   88.1969   14.8155 C.2     1  UNL1        0.0435
     16 C          63.7969   89.6432   14.9250 C.2     1  UNL1        0.0033
     17 O          63.2939   87.6980   17.2066 O.2     1  UNL1       -0.2850
     18 C          63.7071   87.2161   15.8475 C.2     1  UNL1        0.2111
     19 C          63.6482   85.7533   15.5205 C.ar    1  UNL1        0.0961
     20 C          64.6967   84.9712   14.7863 C.ar    1  UNL1        0.0218
     21 C          64.2271   83.5503   14.6823 C.ar    1  UNL1        0.0200
     22 C          62.8884   83.4544   15.3523 C.ar    1  UNL1        0.0725
     23 N          62.5307   84.8159   15.8703 N.ar    1  UNL1       -0.3495
     24 H          61.7070   85.0527   16.3549 H       1  UNL1        0.1661
@<TRIPOS>BOND
     1    17    18    2
     2    18    15    1
     3    15    16    2
     4    16     1    1
     5     1     2   ar
     6     2     3   ar
     7     3     4   ar
     8     4     5   ar
     9     5     6   ar
    10     6     7   ar
    11     7     8   ar
    12     8     9   ar
    13     9    10   ar
    14    10    11   ar
    15    11    12   ar
    16    12    13   ar
    17    13    14   ar
    18    18    19    1
    19    19    20   ar
    20    20    21   ar
    21    21    22   ar
    22    22    23   ar
    23    14     1   ar
    24    23    19   ar
    25     7     2   ar
    26    14     9   ar
    27    23    24    1
@<TRIPOS>MOLECULE
*****
 24 27 0 0 0
SMALL
GASTEIGER

@<TRIPOS>ATOM
      1 C          63.1472   86.9402   12.4160 C.ar    1  UNL1        0.0001
      2 C          62.3463   86.9234   11.1478 C.ar    1  UNL1        0.0000
      3 C          61.9437   85.6161   10.5323 C.ar    1  UNL1        0.0000
      4 C          61.1428   85.5993    9.2641 C.ar    1  UNL1        0.0000
      5 C          60.7445   86.8898    8.6115 C.ar    1  UNL1        0.0000
      6 C          61.1471   88.1971    9.2269 C.ar    1  UNL1        0.0000
      7 C          61.9480   88.2139   10.4951 C.ar    1  UNL1        0.0000
      8 C          62.3507   89.5212   11.1106 C.ar    1  UNL1        0.0000
      9 C          63.1515   89.5380   12.3788 C.ar    1  UNL1        0.0000
     10 C          63.5542   90.8454   12.9944 C.ar    1  UNL1        0.0000
     11 C          64.3551   90.8622   14.2625 C.ar    1  UNL1        0.0000
     12 C          64.7533   89.5717   14.9152 C.ar    1  UNL1        0.0000
     13 C          64.3507   88.2644   14.2997 C.ar    1  UNL1        0.0000
     14 C          63.5498   88.2475   13.0315 C.ar    1  UNL1        0.0000
     15 C          62.5553   84.8958   13.9059 C.2     1  UNL1        0.0435
     16 C          63.5455   85.6497   13.0687 C.2     1  UNL1        0.0033
     17 O          63.5446   83.6132   15.9371 O.2     1  UNL1       -0.2850
     18 C          62.9535   83.6053   14.5586 C.2     1  UNL1        0.2111
     19 C          62.7607   82.3069   13.8326 C.ar    1  UNL1        0.0961
     20 C          62.9561   82.0813   12.3626 C.ar    1  UNL1        0.0218
     21 C          62.6548   80.6411   12.0706 C.ar    1  UNL1        0.0200
     22 C          62.2732   79.9767   13.3602 C.ar    1  UNL1        0.0725
     23 N          62.3387   81.0062   14.4491 N.ar    1  UNL1       -0.3495
     24 H          62.1396   80.8548   15.4014 H       1  UNL1        0.1661
@<TRIPOS>BOND
     1    17    18    2
     2    18    15    1
     3    15    16    2
     4    16     1    1
     5     1     2   ar
     6     2     3   ar
     7     3     4   ar
     8     4     5   ar
     9     5     6   ar
    10     6     7   ar
    11     7     8   ar
    12     8     9   ar
    13     9    10   ar
    14    10    11   ar
    15    11    12   ar
    16    12    13   ar
    17    13    14   ar
    18    18    19    1
    19    19    20   ar
    20    20    21   ar
    21    21    22   ar
    22    22    23   ar
    23    14     1   ar
    24    23    19   ar
    25     7     2   ar
    26    14     9   ar
    27    23    24    1
@<TRIPOS>MOLECULE
*****
 24 27 0 0 0
SMALL
GASTEIGER

@<TRIPOS>ATOM
      1 C          63.2052   86.9650   12.4371 C.ar    1  UNL1        0.0001
      2 C          63.5773   88.2771   13.0616 C.ar    1  UNL1        0.0000
      3 C          64.3898   88.3042   14.3222 C.ar    1  UNL1        0.0000
      4 C          64.7618   89.6162   14.9467 C.ar    1  UNL1        0.0000
      5 C          64.3212   90.9013   14.3107 C.ar    1  UNL1        0.0000
      6 C          63.5087   90.8743   13.0501 C.ar    1  UNL1        0.0000
      7 C          63.1367   89.5622   12.4256 C.ar    1  UNL1        0.0000
      8 C          62.3241   89.5351   11.1650 C.ar    1  UNL1        0.0000
      9 C          61.9521   88.2230   10.5405 C.ar    1  UNL1        0.0000
     10 C          61.1396   88.1960    9.2799 C.ar    1  UNL1        0.0000
     11 C          60.7676   86.8839    8.6554 C.ar    1  UNL1        0.0000
     12 C          61.2082   85.5989    9.2914 C.ar    1  UNL1        0.0000
     13 C          62.0207   85.6259   10.5520 C.ar    1  UNL1        0.0000
     14 C          62.3927   86.9380   11.1765 C.ar    1  UNL1        0.0000
     15 C          62.6853   84.8906   13.9123 C.2     1  UNL1        0.0435
     16 C          63.6458   85.6800   13.0731 C.2     1  UNL1        0.0033
     17 O          63.8585   83.6290   15.8571 O.2     1  UNL1       -0.2850
     18 C          63.1259   83.6055   14.5484 C.2     1  UNL1        0.2111
     19 C          62.8339   82.2970   13.8756 C.ar    1  UNL1        0.0961
     20 C          63.1593   81.9445   12.4544 C.ar    1  UNL1        0.0218
     21 C          62.6917   80.5408   12.2064 C.ar    1  UNL1        0.0200
     22 C          62.0774   80.0261   13.4743 C.ar    1  UNL1        0.0725
     23 N          62.1653   81.1114   14.5059 N.ar    1  UNL1       -0.3495
     24 H          61.8410   81.0555   15.4338 H       1  UNL1        0.1661
@<TRIPOS>BOND
     1    17    18    2
     2    18    15    1
     3    15    16    2
     4    16     1    1
     5     1     2   ar
     6     2     3   ar
     7     3     4   ar
     8     4     5   ar
     9     5     6   ar
    10     6     7   ar
    11     7     8   ar
    12     8     9   ar
    13     9    10   ar
    14    10    11   ar
    15    11    12   ar
    16    12    13   ar
    17    13    14   ar
    18    18    19    1
    19    19    20   ar
    20    20    21   ar
    21    21    22   ar
    22    22    23   ar
    23    14     1   ar
    24    23    19   ar
    25     7     2   ar
    26    14     9   ar
    27    23    24    1
@<TRIPOS>MOLECULE
*****
 24 27 0 0 0
SMALL
GASTEIGER

@<TRIPOS>ATOM
      1 C          63.1055   86.9523   12.1938 C.ar    1  UNL1        0.0001
      2 C          63.3529   85.6754   12.9411 C.ar    1  UNL1        0.0000
      3 C          62.9823   84.3603   12.3221 C.ar    1  UNL1        0.0000
      4 C          63.2297   83.0835   13.0694 C.ar    1  UNL1        0.0000
      5 C          63.8476   83.1218   14.4357 C.ar    1  UNL1        0.0000
      6 C          64.2183   84.4369   15.0546 C.ar    1  UNL1        0.0000
      7 C          63.9709   85.7137   14.3073 C.ar    1  UNL1        0.0000
      8 C          64.3415   87.0289   14.9263 C.ar    1  UNL1        0.0000
      9 C          64.0942   88.3057   14.1790 C.ar    1  UNL1        0.0000
     10 C          64.4648   89.6209   14.7979 C.ar    1  UNL1        0.0000
     11 C          64.2174   90.8977   14.0506 C.ar    1  UNL1        0.0000
     12 C          63.5994   90.8594   12.6844 C.ar    1  UNL1        0.0000
     13 C          63.2288   89.5443   12.0654 C.ar    1  UNL1        0.0000
     14 C          63.4762   88.2674   12.8127 C.ar    1  UNL1        0.0000
     15 C          61.0032   86.7561   10.6799 C.2     1  UNL1        0.0435
     16 C          62.4875   86.9141   10.8275 C.2     1  UNL1        0.0033
     17 O          59.1428   87.5090    9.0301 O.2     1  UNL1       -0.2850
     18 C          60.3852   86.7179    9.3137 C.2     1  UNL1        0.2111
     19 C          61.0097   85.8884    8.2310 C.ar    1  UNL1        0.0961
     20 C          62.4598   85.5180    8.1297 C.ar    1  UNL1        0.0218
     21 C          62.6401   84.6845    6.8957 C.ar    1  UNL1        0.0200
     22 C          61.3015   84.5398    6.2344 C.ar    1  UNL1        0.0725
     23 N          60.2939   85.2839    7.0597 N.ar    1  UNL1       -0.3495
     24 H          59.3317   85.3618    6.8665 H       1  UNL1        0.1661
@<TRIPOS>BOND
     1    17    18    2
     2    18    15    1
     3    15    16    2
     4    16     1    1
     5     1     2   ar
     6     2     3   ar
     7     3     4   ar
     8     4     5   ar
     9     5     6   ar
    10     6     7   ar
    11     7     8   ar
    12     8     9   ar
    13     9    10   ar
    14    10    11   ar
    15    11    12   ar
    16    12    13   ar
    17    13    14   ar
    18    18    19    1
    19    19    20   ar
    20    20    21   ar
    21    21    22   ar
    22    22    23   ar
    23    14     1   ar
    24    23    19   ar
    25     7     2   ar
    26    14     9   ar
    27    23    24    1
