@<TRIPOS>MOLECULE
*****
 19 20 0 0 0
SMALL
GASTEIGER

@<TRIPOS>ATOM
      1 C          60.3138   88.3262   11.0469 C.ar    1  UNL1        0.1858
      2 N          60.9457   87.1037   11.6437 N.ar    1  UNL1       -0.2022
      3 C          61.7568   86.4325   10.5753 C.ar    1  UNL1        0.2314
      4 O          61.6262   87.2401    9.3180 O.2     1  UNL1       -0.4213
      5 C          60.7344   88.4104    9.6094 C.ar    1  UNL1        0.2169
      6 N          60.3335   89.4777    8.6346 N.pl3   1  UNL1       -0.3273
      7 H          60.6630   89.4464    7.7074 H       1  UNL1        0.1452
      8 H          59.7409   90.2095    8.9220 H       1  UNL1        0.1452
      9 C          62.5579   85.1745   10.7359 C.ar    1  UNL1        0.0536
     10 C          62.6445   84.5065   12.0761 C.ar    1  UNL1        0.0047
     11 C          63.4455   83.2485   12.2367 C.ar    1  UNL1        0.0002
     12 C          64.1600   82.6586   11.0571 C.ar    1  UNL1        0.0000
     13 C          64.0734   83.3265    9.7169 C.ar    1  UNL1        0.0002
     14 C          63.2723   84.5845    9.5563 C.ar    1  UNL1        0.0047
     15 N          58.6114   88.8390   12.9413 N.am    1  UNL1       -0.3239
     16 C          59.4185   89.2943   11.7618 C.2     1  UNL1        0.2650
     17 O          59.3304   90.7178   11.2971 O.2     1  UNL1       -0.2686
     18 H          58.0239   89.4745   13.4106 H       1  UNL1        0.1453
     19 H          58.6693   87.9047   13.2463 H       1  UNL1        0.1453
@<TRIPOS>BOND
     1    15    16   am
     2    16    17    2
     3    16     1    1
     4     1     2   ar
     5     2     3   ar
     6     3     9    1
     7     9    10   ar
     8    10    11   ar
     9    11    12   ar
    10    12    13   ar
    11    13    14   ar
    12     3     4   ar
    13     4     5   ar
    14     5     6    1
    15     5     1   ar
    16    14     9   ar
    17    15    18    1
    18    15    19    1
    19     6     7    1
    20     6     8    1
@<TRIPOS>MOLECULE
*****
 19 20 0 0 0
SMALL
GASTEIGER

@<TRIPOS>ATOM
      1 C          66.5509   92.3047   14.6797 C.ar    1  UNL1        0.1858
      2 N          66.1447   91.6859   13.3751 N.ar    1  UNL1       -0.2022
      3 C          64.7070   91.2725   13.4858 C.ar    1  UNL1        0.2314
      4 O          64.2247   91.6357   14.8589 O.2     1  UNL1       -0.4213
      5 C          65.3642   92.2737   15.5968 C.ar    1  UNL1        0.2169
      6 N          65.3242   92.7899   17.0046 N.pl3   1  UNL1       -0.3273
      7 H          64.4939   92.7243   17.5295 H       1  UNL1        0.1452
      8 H          66.1282   93.1944   17.4036 H       1  UNL1        0.1452
      9 C          63.8944   90.6117   12.4120 C.ar    1  UNL1        0.0536
     10 C          63.3696   89.2215   12.6168 C.ar    1  UNL1        0.0047
     11 C          62.5570   88.5609   11.5429 C.ar    1  UNL1        0.0002
     12 C          62.2692   89.2904   10.2643 C.ar    1  UNL1        0.0000
     13 C          62.7940   90.6806   10.0595 C.ar    1  UNL1        0.0002
     14 C          63.6066   91.3412   11.1333 C.ar    1  UNL1        0.0047
     15 N          69.1202   92.3414   14.2961 N.am    1  UNL1       -0.3239
     16 C          67.9057   92.8575   15.0094 C.2     1  UNL1        0.2650
     17 O          68.0461   93.9264   16.0524 O.2     1  UNL1       -0.2686
     18 H          70.0095   92.7042   14.5125 H       1  UNL1        0.1453
     19 H          69.0280   91.6399   13.6116 H       1  UNL1        0.1453
@<TRIPOS>BOND
     1    15    16   am
     2    16    17    2
     3    16     1    1
     4     1     2   ar
     5     2     3   ar
     6     3     9    1
     7     9    10   ar
     8    10    11   ar
     9    11    12   ar
    10    12    13   ar
    11    13    14   ar
    12     3     4   ar
    13     4     5   ar
    14     5     6    1
    15     5     1   ar
    16    14     9   ar
    17    15    18    1
    18    15    19    1
    19     6     7    1
    20     6     8    1
@<TRIPOS>MOLECULE
*****
 19 20 0 0 0
SMALL
GASTEIGER

@<TRIPOS>ATOM
      1 C          60.3676   87.0911    9.3933 C.ar    1  UNL1        0.1858
      2 N          61.1864   85.8348    9.4306 N.ar    1  UNL1       -0.2022
      3 C          61.8061   85.7256   10.7923 C.ar    1  UNL1        0.2314
      4 O          61.3703   86.9144   11.5965 O.2     1  UNL1       -0.4213
      5 C          60.4812   87.7583   10.7320 C.ar    1  UNL1        0.2169
      6 N          59.8216   89.0437   11.1353 N.pl3   1  UNL1       -0.3273
      7 H          59.9574   89.4035   12.0416 H       1  UNL1        0.1452
      8 H          59.2529   89.5276   10.4936 H       1  UNL1        0.1452
      9 C          62.7040   84.6215   11.2664 C.ar    1  UNL1        0.0536
     10 C          63.4691   83.7983   10.2730 C.ar    1  UNL1        0.0047
     11 C          64.3670   82.6942   10.7471 C.ar    1  UNL1        0.0002
     12 C          64.4996   82.4133   12.2146 C.ar    1  UNL1        0.0000
     13 C          63.7344   83.2365   13.2080 C.ar    1  UNL1        0.0002
     14 C          62.8366   84.3406   12.7338 C.ar    1  UNL1        0.0047
     15 N          58.7315   86.6412    7.4258 N.am    1  UNL1       -0.3239
     16 C          59.5744   87.5921    8.2230 C.2     1  UNL1        0.2650
     17 O          59.6240   89.0441    7.8497 O.2     1  UNL1       -0.2686
     18 H          58.2109   86.9701    6.6577 H       1  UNL1        0.1453
     19 H          58.6990   85.6882    7.6708 H       1  UNL1        0.1453
@<TRIPOS>BOND
     1    15    16   am
     2    16    17    2
     3    16     1    1
     4     1     2   ar
     5     2     3   ar
     6     3     9    1
     7     9    10   ar
     8    10    11   ar
     9    11    12   ar
    10    12    13   ar
    11    13    14   ar
    12     3     4   ar
    13     4     5   ar
    14     5     6    1
    15     5     1   ar
    16    14     9   ar
    17    15    18    1
    18    15    19    1
    19     6     7    1
    20     6     8    1
@<TRIPOS>MOLECULE
*****
 19 20 0 0 0
SMALL
GASTEIGER

@<TRIPOS>ATOM
      1 C          63.5229   90.9030   11.5776 C.ar    1  UNL1        0.1858
      2 N          63.0524   90.2818   10.2959 N.ar    1  UNL1       -0.2022
      3 C          62.0919   89.1819   10.6392 C.ar    1  UNL1        0.2314
      4 O          61.9688   89.1234   12.1330 O.2     1  UNL1       -0.4213
      5 C          62.8532   90.1871   12.7130 C.ar    1  UNL1        0.2169
      6 N          63.0359   90.4829   14.1721 N.pl3   1  UNL1       -0.3273
      7 H          62.5500   89.9548   14.8461 H       1  UNL1        0.1452
      8 H          63.6418   91.2052   14.4559 H       1  UNL1        0.1452
      9 C          61.3795   88.2961    9.6604 C.ar    1  UNL1        0.0536
     10 C          61.8785   86.9043    9.4074 C.ar    1  UNL1        0.0047
     11 C          61.1662   86.0186    8.4287 C.ar    1  UNL1        0.0002
     12 C          59.9548   86.5246    7.7030 C.ar    1  UNL1        0.0000
     13 C          59.4558   87.9163    7.9561 C.ar    1  UNL1        0.0002
     14 C          60.1681   88.8020    8.9348 C.ar    1  UNL1        0.0047
     15 N          64.9472   92.7762   10.4763 N.am    1  UNL1       -0.3239
     16 C          64.4928   92.0404   11.7020 C.2     1  UNL1        0.2650
     17 O          65.0084   92.4421   13.0521 O.2     1  UNL1       -0.2686
     18 H          65.5838   93.5227   10.5580 H       1  UNL1        0.1453
     19 H          64.6088   92.5125    9.5902 H       1  UNL1        0.1453
@<TRIPOS>BOND
     1    15    16   am
     2    16    17    2
     3    16     1    1
     4     1     2   ar
     5     2     3   ar
     6     3     9    1
     7     9    10   ar
     8    10    11   ar
     9    11    12   ar
    10    12    13   ar
    11    13    14   ar
    12     3     4   ar
    13     4     5   ar
    14     5     6    1
    15     5     1   ar
    16    14     9   ar
    17    15    18    1
    18    15    19    1
    19     6     7    1
    20     6     8    1
@<TRIPOS>MOLECULE
*****
 19 20 0 0 0
SMALL
GASTEIGER

@<TRIPOS>ATOM
      1 C          63.6114   84.4990   13.3819 C.ar    1  UNL1        0.1858
      2 N          62.8326   85.7069   12.9526 N.ar    1  UNL1       -0.2022
      3 C          62.6383   85.6294   11.4672 C.ar    1  UNL1        0.2314
      4 O          63.2970   84.3736   10.9785 O.2     1  UNL1       -0.4213
      5 C          63.8985   83.6750   12.1617 C.ar    1  UNL1        0.2169
      6 N          64.6543   82.3796   12.1304 N.pl3   1  UNL1       -0.3273
      7 H          64.7919   81.9105   11.2759 H       1  UNL1        0.1452
      8 H          65.0128   81.9986   12.9644 H       1  UNL1        0.1452
      9 C          61.9126   86.6319   10.6195 C.ar    1  UNL1        0.0536
     10 C          60.9331   86.1681    9.5825 C.ar    1  UNL1        0.0047
     11 C          60.2074   87.1705    8.7348 C.ar    1  UNL1        0.0002
     12 C          60.4613   88.6367    8.9241 C.ar    1  UNL1        0.0000
     13 C          61.4408   89.1005    9.9611 C.ar    1  UNL1        0.0002
     14 C          62.1665   88.0981   10.8088 C.ar    1  UNL1        0.0047
     15 N          64.4990   85.2636   15.7008 N.am    1  UNL1       -0.3239
     16 C          64.0297   84.1724   14.7848 C.2     1  UNL1        0.2650
     17 O          63.9788   82.7546   15.2718 O.2     1  UNL1       -0.2686
     18 H          64.7736   85.0493   16.6216 H       1  UNL1        0.1453
     19 H          64.5325   86.1942   15.3812 H       1  UNL1        0.1453
@<TRIPOS>BOND
     1    15    16   am
     2    16    17    2
     3    16     1    1
     4     1     2   ar
     5     2     3   ar
     6     3     9    1
     7     9    10   ar
     8    10    11   ar
     9    11    12   ar
    10    12    13   ar
    11    13    14   ar
    12     3     4   ar
    13     4     5   ar
    14     5     6    1
    15     5     1   ar
    16    14     9   ar
    17    15    18    1
    18    15    19    1
    19     6     7    1
    20     6     8    1
@<TRIPOS>MOLECULE
*****
 19 20 0 0 0
SMALL
GASTEIGER

@<TRIPOS>ATOM
      1 C          64.0285   91.1206   13.8893 C.ar    1  UNL1        0.1858
      2 N          65.1497   92.0128   13.4456 N.ar    1  UNL1       -0.2022
      3 C          65.0666   92.1552   11.9547 C.ar    1  UNL1        0.2314
      4 O          63.8940   91.3510   11.4769 O.2     1  UNL1       -0.4213
      5 C          63.2524   90.7116   12.6725 C.ar    1  UNL1        0.2169
      6 N          62.0465   89.8197   12.6545 N.pl3   1  UNL1       -0.3273
      7 H          61.6035   89.6080   11.8012 H       1  UNL1        0.1452
      8 H          61.6980   89.4461   13.4960 H       1  UNL1        0.1452
      9 C          65.9934   92.9605   11.0929 C.ar    1  UNL1        0.0536
     10 C          65.8543   94.4528   11.0322 C.ar    1  UNL1        0.0047
     11 C          66.7811   95.2580   10.1705 C.ar    1  UNL1        0.0002
     12 C          67.8470   94.5709    9.3694 C.ar    1  UNL1        0.0000
     13 C          67.9861   93.0786    9.4300 C.ar    1  UNL1        0.0002
     14 C          67.0593   92.2734   10.2918 C.ar    1  UNL1        0.0047
     15 N          63.5448   89.2598   15.6367 N.am    1  UNL1       -0.3239
     16 C          63.7349   90.7095   15.3016 C.2     1  UNL1        0.2650
     17 O          63.6314   91.7482   16.3789 O.2     1  UNL1       -0.2686
     18 H          63.3521   88.9900   16.5637 H       1  UNL1        0.1453
     19 H          63.6127   88.5781   14.9297 H       1  UNL1        0.1453
@<TRIPOS>BOND
     1    15    16   am
     2    16    17    2
     3    16     1    1
     4     1     2   ar
     5     2     3   ar
     6     3     9    1
     7     9    10   ar
     8    10    11   ar
     9    11    12   ar
    10    12    13   ar
    11    13    14   ar
    12     3     4   ar
    13     4     5   ar
    14     5     6    1
    15     5     1   ar
    16    14     9   ar
    17    15    18    1
    18    15    19    1
    19     6     7    1
    20     6     8    1
@<TRIPOS>MOLECULE
*****
 19 20 0 0 0
SMALL
GASTEIGER

@<TRIPOS>ATOM
      1 C          63.2713   90.2828   13.0959 C.ar    1  UNL1        0.1858
      2 N          62.3680   89.2456   12.4973 N.ar    1  UNL1       -0.2022
      3 C          62.4147   89.3956   11.0055 C.ar    1  UNL1        0.2314
      4 O          63.3468   90.5255   10.6822 O.2     1  UNL1       -0.4213
      5 C          63.8762   91.0738   11.9741 C.ar    1  UNL1        0.2169
      6 N          64.8412   92.2131   12.1188 N.pl3   1  UNL1       -0.3273
      7 H          65.1844   92.6722   11.3184 H       1  UNL1        0.1452
      8 H          65.1313   92.5017   13.0142 H       1  UNL1        0.1452
      9 C          61.6614   88.5620   10.0115 C.ar    1  UNL1        0.0536
     10 C          60.5277   89.1630    9.2348 C.ar    1  UNL1        0.0047
     11 C          59.7745   88.3295    8.2409 C.ar    1  UNL1        0.0002
     12 C          60.1551   86.8949    8.0238 C.ar    1  UNL1        0.0000
     13 C          61.2888   86.2939    8.8006 C.ar    1  UNL1        0.0002
     14 C          62.0420   87.1274    9.7944 C.ar    1  UNL1        0.0047
     15 N          62.8154   89.6438   15.5726 N.am    1  UNL1       -0.3239
     16 C          63.5251   90.4922   14.5594 C.2     1  UNL1        0.2650
     17 O          64.4887   91.5499   15.0096 O.2     1  UNL1       -0.2686
     18 H          62.9819   89.7813   16.5331 H       1  UNL1        0.1453
     19 H          62.1829   88.9496   15.2771 H       1  UNL1        0.1453
@<TRIPOS>BOND
     1    15    16   am
     2    16    17    2
     3    16     1    1
     4     1     2   ar
     5     2     3   ar
     6     3     9    1
     7     9    10   ar
     8    10    11   ar
     9    11    12   ar
    10    12    13   ar
    11    13    14   ar
    12     3     4   ar
    13     4     5   ar
    14     5     6    1
    15     5     1   ar
    16    14     9   ar
    17    15    18    1
    18    15    19    1
    19     6     7    1
    20     6     8    1
@<TRIPOS>MOLECULE
*****
 19 20 0 0 0
SMALL
GASTEIGER

@<TRIPOS>ATOM
      1 C          61.1787   88.6498   10.5283 C.ar    1  UNL1        0.1858
      2 N          61.2917   87.1826   10.2375 N.ar    1  UNL1       -0.2022
      3 C          62.3147   86.6029   11.1690 C.ar    1  UNL1        0.2314
      4 O          62.8338   87.7118   12.0354 O.2     1  UNL1       -0.4213
      5 C          62.1318   88.9769   11.6395 C.ar    1  UNL1        0.2169
      6 N          62.3453   90.3312   12.2479 N.pl3   1  UNL1       -0.3273
      7 H          62.9968   90.4462   12.9770 H       1  UNL1        0.1452
      8 H          61.8340   91.1052   11.9181 H       1  UNL1        0.1452
      9 C          62.7432   85.1664   11.2242 C.ar    1  UNL1        0.0536
     10 C          62.5602   84.3772   12.4866 C.ar    1  UNL1        0.0047
     11 C          62.9887   82.9408   12.5418 C.ar    1  UNL1        0.0002
     12 C          63.6002   82.2936   11.3346 C.ar    1  UNL1        0.0000
     13 C          63.7832   83.0828   10.0723 C.ar    1  UNL1        0.0002
     14 C          63.3547   84.5192   10.0171 C.ar    1  UNL1        0.0047
     15 N          60.0307   89.4927    8.3554 N.am    1  UNL1       -0.3239
     16 C          60.2718   89.6196    9.8304 C.2     1  UNL1        0.2650
     17 O          59.6061   90.7163   10.6076 O.2     1  UNL1       -0.2686
     18 H          59.4355   90.1293    7.8974 H       1  UNL1        0.1453
     19 H          60.4676   88.7729    7.8453 H       1  UNL1        0.1453
@<TRIPOS>BOND
     1    15    16   am
     2    16    17    2
     3    16     1    1
     4     1     2   ar
     5     2     3   ar
     6     3     9    1
     7     9    10   ar
     8    10    11   ar
     9    11    12   ar
    10    12    13   ar
    11    13    14   ar
    12     3     4   ar
    13     4     5   ar
    14     5     6    1
    15     5     1   ar
    16    14     9   ar
    17    15    18    1
    18    15    19    1
    19     6     7    1
    20     6     8    1
@<TRIPOS>MOLECULE
*****
 19 20 0 0 0
SMALL
GASTEIGER

@<TRIPOS>ATOM
      1 C          63.2210   83.9340   13.2882 C.ar    1  UNL1        0.1858
      2 N          62.4327   84.4209   12.1086 N.ar    1  UNL1       -0.2022
      3 C          62.5772   85.9122   12.0381 C.ar    1  UNL1        0.2314
      4 O          63.4548   86.3471   13.1742 O.2     1  UNL1       -0.4213
      5 C          63.8527   85.1245   13.9468 C.ar    1  UNL1        0.2169
      6 N          64.7285   85.0972   15.1642 N.pl3   1  UNL1       -0.3273
      7 H          65.0981   85.9359   15.5237 H       1  UNL1        0.1452
      8 H          64.9338   84.2405   15.6038 H       1  UNL1        0.1452
      9 C          61.9535   86.8110   11.0117 C.ar    1  UNL1        0.0536
     10 C          61.0449   86.2371    9.9652 C.ar    1  UNL1        0.0047
     11 C          60.4213   87.1358    8.9389 C.ar    1  UNL1        0.0002
     12 C          60.7063   88.6084    8.9591 C.ar    1  UNL1        0.0000
     13 C          61.6148   89.1822   10.0056 C.ar    1  UNL1        0.0002
     14 C          62.2385   88.2835   11.0319 C.ar    1  UNL1        0.0047
     15 N          62.6064   82.0239   14.9386 N.am    1  UNL1       -0.3239
     16 C          63.3542   82.5072   13.7314 C.2     1  UNL1        0.2650
     17 O          64.2352   81.5637   12.9675 O.2     1  UNL1       -0.2686
     18 H          62.6938   81.0874   15.2295 H       1  UNL1        0.1453
     19 H          62.0281   82.6431   15.4400 H       1  UNL1        0.1453
@<TRIPOS>BOND
     1    15    16   am
     2    16    17    2
     3    16     1    1
     4     1     2   ar
     5     2     3   ar
     6     3     9    1
     7     9    10   ar
     8    10    11   ar
     9    11    12   ar
    10    12    13   ar
    11    13    14   ar
    12     3     4   ar
    13     4     5   ar
    14     5     6    1
    15     5     1   ar
    16    14     9   ar
    17    15    18    1
    18    15    19    1
    19     6     7    1
    20     6     8    1
