@<TRIPOS>MOLECULE
*****
 35 39 0 0 0
SMALL
GASTEIGER

@<TRIPOS>ATOM
      1 O          64.2570   87.8742   13.2444 O.2     1  UNL1       -0.2522
      2 C          64.1632   88.1124   14.7224 C.2     1  UNL1        0.3082
      3 N          64.5093   89.4577   15.2887 N.am    1  UNL1       -0.2681
      4 N          63.7235   87.0055   15.6340 N.am    1  UNL1       -0.2681
      5 H          64.4477   89.6140   16.2587 H       1  UNL1        0.1564
      6 H          63.6619   87.1618   16.6040 H       1  UNL1        0.1564
      7 C          64.9490   90.5646   14.3770 C.ar    1  UNL1        0.0516
      8 C          66.1899   91.3468   14.6913 C.ar    1  UNL1        0.0147
      9 C          66.6297   92.4537   13.7796 C.ar    1  UNL1        0.0010
     10 C          65.8286   92.7786   12.5537 C.ar    1  UNL1       -0.0014
     11 C          64.5878   91.9965   12.2394 C.ar    1  UNL1        0.0010
     12 C          64.1481   90.8895   13.1512 C.ar    1  UNL1        0.0147
     13 C          66.2684   93.8856   11.6420 C.2     1  UNL1        0.0158
     14 C          65.8560   95.2996   11.9259 C.2     1  UNL1        0.0487
     15 C          66.2957   96.4065   11.0144 C.2     1  UNL1        0.2355
     16 N          67.1481   96.0997    9.8187 N.2     1  UNL1       -0.0325
     17 C          67.5606   94.6857    9.5348 C.2     1  UNL1        0.3799
     18 N          68.3910   94.0829    8.4407 N.2     1  UNL1       -0.0106
     19 C          68.4644   92.6034    8.6762 C.2     1  UNL1        0.3351
     20 N          67.6793   92.2917    9.9158 N.2     1  UNL1       -0.2103
     21 C          67.1207   93.5787   10.4465 C.3     1  UNL1        0.2404
     22 C          63.3774   85.6602   15.0677 C.ar    1  UNL1        0.0517
     23 C          62.6761   84.6452   15.9208 C.ar    1  UNL1        0.0147
     24 C          62.3301   83.3000   15.3546 C.ar    1  UNL1        0.0014
     25 C          62.6853   82.9698   13.9352 C.ar    1  UNL1        0.0046
     26 C          63.3867   83.9848   13.0820 C.ar    1  UNL1        0.0548
     27 C          63.7327   85.3301   13.6483 C.ar    1  UNL1        0.0192
     28 C          63.7420   83.6546   11.6626 C.2     1  UNL1        0.2492
     29 O          64.7289   82.5633   11.3709 O.2     1  UNL1       -0.2699
     30 N          63.1103   84.4157   10.5348 N.am    1  UNL1       -0.2709
     31 C          62.1234   85.5069   10.8265 C.3     1  UNL1        0.1258
     32 C          61.4917   86.2680    9.6988 C.3     1  UNL1        0.1637
     33 O          61.8470   85.9378    8.2794 O.3     1  UNL1       -0.3501
     34 C          62.8339   84.8466    7.9877 C.3     1  UNL1        0.1637
     35 C          63.4656   84.0855    9.1154 C.3     1  UNL1        0.1258
@<TRIPOS>BOND
     1     1     2    2
     2     2     3   am
     3     3     7    1
     4     7     8   ar
     5     8     9   ar
     6     9    10   ar
     7    10    13    1
     8    13    14    2
     9    14    15    1
    10    15    16    2
    11    16    17    1
    12    17    18    2
    13    18    19    1
    14    19    20    2
    15    20    21    1
    16    10    11   ar
    17    11    12   ar
    18     2     4   am
    19     4    22    1
    20    22    23   ar
    21    23    24   ar
    22    24    25   ar
    23    25    26   ar
    24    26    28    1
    25    28    29    2
    26    28    30   am
    27    30    31    1
    28    31    32    1
    29    32    33    1
    30    33    34    1
    31    34    35    1
    32    26    27   ar
    33    12     7   ar
    34    27    22   ar
    35    21    13    1
    36    35    30    1
    37    21    17    1
    38     3     5    1
    39     4     6    1
@<TRIPOS>MOLECULE
*****
 35 39 0 0 0
SMALL
GASTEIGER

@<TRIPOS>ATOM
      1 O          61.0233   90.3244    4.8610 O.2     1  UNL1       -0.2522
      2 C          59.7640   91.0756    5.1767 C.2     1  UNL1        0.3082
      3 N          59.3360   92.2209    4.3076 N.am    1  UNL1       -0.2681
      4 N          58.9327   90.6817    6.3614 N.am    1  UNL1       -0.2681
      5 H          58.5095   92.7140    4.5149 H       1  UNL1        0.1564
      6 H          58.1062   91.1747    6.5687 H       1  UNL1        0.1564
      7 C          60.1673   92.6149    3.1229 C.ar    1  UNL1        0.0516
      8 C          61.6552   92.4272    3.1549 C.ar    1  UNL1        0.0147
      9 C          62.4865   92.8211    1.9702 C.ar    1  UNL1        0.0010
     10 C          61.8299   93.4029    0.7533 C.ar    1  UNL1       -0.0014
     11 C          60.3421   93.5906    0.7213 C.ar    1  UNL1        0.0010
     12 C          59.5108   93.1966    1.9061 C.ar    1  UNL1        0.0147
     13 C          62.6613   93.7968   -0.4314 C.2     1  UNL1        0.0158
     14 C          62.3804   93.1973   -1.7774 C.2     1  UNL1        0.0487
     15 C          63.2117   93.5912   -2.9621 C.2     1  UNL1        0.2355
     16 N          64.3239   94.5848   -2.8010 N.2     1  UNL1       -0.0325
     17 C          64.6048   95.1843   -1.4550 C.2     1  UNL1        0.3799
     18 N          65.6266   96.1808   -0.9935 N.2     1  UNL1       -0.0106
     19 C          65.4268   96.4026    0.4764 C.2     1  UNL1        0.3351
     20 N          64.2815   95.5433    0.9235 N.2     1  UNL1       -0.2103
     21 C          63.7734   94.7903   -0.2702 C.3     1  UNL1        0.2404
     22 C          59.3607   89.5364    7.2305 C.ar    1  UNL1        0.0517
     23 C          59.3136   88.1341    6.7002 C.ar    1  UNL1        0.0147
     24 C          59.7416   86.9888    7.5692 C.ar    1  UNL1        0.0014
     25 C          60.2166   87.2458    8.9685 C.ar    1  UNL1        0.0046
     26 C          60.2637   88.6482    9.4989 C.ar    1  UNL1        0.0548
     27 C          59.8357   89.7935    8.6298 C.ar    1  UNL1        0.0192
     28 C          60.7388   88.9053   10.8982 C.2     1  UNL1        0.2492
     29 O          60.0526   88.2439   12.0566 O.2     1  UNL1       -0.2699
     30 N          61.9000   89.8237   11.1393 N.am    1  UNL1       -0.2709
     31 C          62.5861   90.4851    9.9810 C.3     1  UNL1        0.1258
     32 C          63.7473   91.4035   10.2220 C.3     1  UNL1        0.1637
     33 O          64.2224   91.6606   11.6213 O.3     1  UNL1       -0.3501
     34 C          63.5363   90.9992   12.7797 C.3     1  UNL1        0.1637
     35 C          62.3751   90.0808   12.5387 C.3     1  UNL1        0.1258
@<TRIPOS>BOND
     1     1     2    2
     2     2     3   am
     3     3     7    1
     4     7     8   ar
     5     8     9   ar
     6     9    10   ar
     7    10    13    1
     8    13    14    2
     9    14    15    1
    10    15    16    2
    11    16    17    1
    12    17    18    2
    13    18    19    1
    14    19    20    2
    15    20    21    1
    16    10    11   ar
    17    11    12   ar
    18     2     4   am
    19     4    22    1
    20    22    23   ar
    21    23    24   ar
    22    24    25   ar
    23    25    26   ar
    24    26    28    1
    25    28    29    2
    26    28    30   am
    27    30    31    1
    28    31    32    1
    29    32    33    1
    30    33    34    1
    31    34    35    1
    32    26    27   ar
    33    12     7   ar
    34    27    22   ar
    35    21    13    1
    36    35    30    1
    37    21    17    1
    38     3     5    1
    39     4     6    1
@<TRIPOS>MOLECULE
*****
 35 39 0 0 0
SMALL
GASTEIGER

@<TRIPOS>ATOM
      1 O          60.8848   89.4058    7.9023 O.2     1  UNL1       -0.2522
      2 C          59.7608   88.5063    7.4810 C.2     1  UNL1        0.3082
      3 N          59.5140   87.2209    8.2137 N.am    1  UNL1       -0.2681
      4 N          58.8836   88.8921    6.3271 N.am    1  UNL1       -0.2681
      5 H          58.7763   86.6305    7.9373 H       1  UNL1        0.1564
      6 H          58.1459   88.3017    6.0506 H       1  UNL1        0.1564
      7 C          60.3911   86.8350    9.3676 C.ar    1  UNL1        0.0516
      8 C          60.2290   87.5169   10.6939 C.ar    1  UNL1        0.0147
      9 C          61.1062   87.1310   11.8478 C.ar    1  UNL1        0.0010
     10 C          62.1456   86.0632   11.6756 C.ar    1  UNL1       -0.0014
     11 C          62.3077   85.3813   10.3494 C.ar    1  UNL1        0.0010
     12 C          61.4305   85.7672    9.1955 C.ar    1  UNL1        0.0147
     13 C          63.0227   85.6774   12.8296 C.2     1  UNL1        0.0158
     14 C          63.7944   86.7294   13.5696 C.2     1  UNL1        0.0487
     15 C          64.6716   86.3436   14.7235 C.2     1  UNL1        0.2355
     16 N          64.7771   84.9056   15.1375 N.2     1  UNL1       -0.0325
     17 C          64.0054   83.8536   14.3974 C.2     1  UNL1        0.3799
     18 N          63.9108   82.3672   14.5750 N.2     1  UNL1       -0.0106
     19 C          62.9750   81.8344   13.5307 C.2     1  UNL1        0.3351
     20 N          62.4914   82.9915   12.7078 N.2     1  UNL1       -0.2103
     21 C          63.1283   84.2395   13.2435 C.3     1  UNL1        0.2404
     22 C          59.1304   90.1776    5.5944 C.ar    1  UNL1        0.0517
     23 C          58.0819   91.2502    5.5877 C.ar    1  UNL1        0.0147
     24 C          58.3286   92.5356    4.8550 C.ar    1  UNL1        0.0014
     25 C          59.6238   92.7484    4.1290 C.ar    1  UNL1        0.0046
     26 C          60.6724   91.6757    4.1356 C.ar    1  UNL1        0.0548
     27 C          60.4256   90.3902    4.8683 C.ar    1  UNL1        0.0192
     28 C          61.9675   91.8884    3.4096 C.2     1  UNL1        0.2492
     29 O          63.2176   91.2149    3.8928 O.2     1  UNL1       -0.2699
     30 N          62.0126   92.7748    2.2002 N.am    1  UNL1       -0.2709
     31 C          60.7625   93.4483    1.7170 C.3     1  UNL1        0.1258
     32 C          60.8076   94.3346    0.5077 C.3     1  UNL1        0.1637
     33 O          62.1028   94.5474   -0.2184 O.3     1  UNL1       -0.3501
     34 C          63.3529   93.8738    0.2648 C.3     1  UNL1        0.1637
     35 C          63.3078   92.9875    1.4741 C.3     1  UNL1        0.1258
@<TRIPOS>BOND
     1     1     2    2
     2     2     3   am
     3     3     7    1
     4     7     8   ar
     5     8     9   ar
     6     9    10   ar
     7    10    13    1
     8    13    14    2
     9    14    15    1
    10    15    16    2
    11    16    17    1
    12    17    18    2
    13    18    19    1
    14    19    20    2
    15    20    21    1
    16    10    11   ar
    17    11    12   ar
    18     2     4   am
    19     4    22    1
    20    22    23   ar
    21    23    24   ar
    22    24    25   ar
    23    25    26   ar
    24    26    28    1
    25    28    29    2
    26    28    30   am
    27    30    31    1
    28    31    32    1
    29    32    33    1
    30    33    34    1
    31    34    35    1
    32    26    27   ar
    33    12     7   ar
    34    27    22   ar
    35    21    13    1
    36    35    30    1
    37    21    17    1
    38     3     5    1
    39     4     6    1
