@<TRIPOS>MOLECULE
*****
 30 33 0 0 0
SMALL
GASTEIGER

@<TRIPOS>ATOM
      1 S          64.0401   89.4245   14.6369 S.O2    1  UNL1        0.0736
      2 O          65.4429   88.9640   14.9013 O.2     1  UNL1       -0.1499
      3 O          62.6372   89.8850   14.3725 O.2     1  UNL1       -0.1499
      4 C          64.5623   90.4858   13.7144 C.ar    1  UNL1        0.1252
      5 C          65.7871   91.2672   14.0873 C.ar    1  UNL1        0.0202
      6 C          66.3094   92.3285   13.1648 C.ar    1  UNL1        0.0014
      7 C          65.6067   92.6083   11.8694 C.ar    1  UNL1        0.0001
      8 C          64.3818   91.8269   11.4965 C.ar    1  UNL1        0.0014
      9 C          63.8596   90.7656   12.4191 C.ar    1  UNL1        0.0202
     10 C          66.1289   93.6696   10.9469 C.ar    1  UNL1        0.0001
     11 C          65.7756   95.1082   11.1824 C.ar    1  UNL1        0.0009
     12 C          66.2978   96.1695   10.2600 C.ar    1  UNL1        0.0114
     13 C          67.1734   95.7921    9.1019 C.ar    1  UNL1        0.0577
     14 CL         67.6956   96.8534    8.1795 Cl      1  UNL1       -0.0822
     15 C          67.5268   94.3535    8.8664 C.ar    1  UNL1        0.0114
     16 C          67.0045   93.2922    9.7890 C.ar    1  UNL1        0.0009
     17 N          63.5178   88.3633   15.5594 N.pl3   1  UNL1       -0.2150
     18 H          63.1333   88.6138   16.4304 H       1  UNL1        0.1737
     19 C          63.3738   81.1978   10.4328 C.3     1  UNL1        0.0897
     20 N          63.4407   82.2527   11.4971 N.3     1  UNL1       -0.2709
     21 C          63.6888   81.7565   12.8908 C.3     1  UNL1        0.0768
     22 C          63.8081   82.5493   14.1584 C.3     1  UNL1        0.0433
     23 C          63.7088   84.0343   14.3457 C.ar    1  UNL1       -0.0246
     24 C          63.8883   84.4184   15.7845 C.ar    1  UNL1       -0.0032
     25 C          63.8246   85.8614   16.1891 C.ar    1  UNL1        0.0155
     26 C          63.5815   86.9203   15.1549 C.ar    1  UNL1        0.0644
     27 C          63.4020   86.5361   13.7160 C.ar    1  UNL1        0.0113
     28 C          63.4656   85.0931   13.3115 C.ar    1  UNL1       -0.0234
     29 C          63.2617   84.9285   11.8345 C.3     1  UNL1        0.0434
     30 C          63.2506   83.6645   11.0271 C.3     1  UNL1        0.0768
@<TRIPOS>BOND
     1    19    20    1
     2    20    21    1
     3    21    22    1
     4    22    23    1
     5    23    24   ar
     6    24    25   ar
     7    25    26   ar
     8    26    17    1
     9    17     1    1
    10     1     2    2
    11     1     3    2
    12     1     4    1
    13     4     5   ar
    14     5     6   ar
    15     6     7   ar
    16     7    10    1
    17    10    11   ar
    18    11    12   ar
    19    12    13   ar
    20    13    14    1
    21    13    15   ar
    22    15    16   ar
    23     7     8   ar
    24     8     9   ar
    25    26    27   ar
    26    27    28   ar
    27    28    29    1
    28    29    30    1
    29    30    20    1
    30    28    23   ar
    31     9     4   ar
    32    16    10   ar
    33    17    18    1
@<TRIPOS>MOLECULE
*****
 30 33 0 0 0
SMALL
GASTEIGER

@<TRIPOS>ATOM
      1 S          64.0302   90.5500   15.4945 S.O2    1  UNL1        0.0736
      2 O          63.3632   89.6558   14.4917 O.2     1  UNL1       -0.1499
      3 O          64.6972   91.4441   16.4972 O.2     1  UNL1       -0.1499
      4 C          64.5758   91.3929   14.3800 C.ar    1  UNL1        0.1252
      5 C          63.9988   91.2768   13.0003 C.ar    1  UNL1        0.0202
      6 C          64.5443   92.1197   11.8859 C.ar    1  UNL1        0.0014
      7 C          65.6668   93.0787   12.1512 C.ar    1  UNL1        0.0001
      8 C          66.2439   93.1947   13.5309 C.ar    1  UNL1        0.0014
      9 C          65.6983   92.3518   14.6453 C.ar    1  UNL1        0.0202
     10 C          66.2123   93.9215   11.0367 C.ar    1  UNL1        0.0001
     11 C          67.1547   93.3223   10.0353 C.ar    1  UNL1        0.0009
     12 C          67.7002   94.1652    8.9209 C.ar    1  UNL1        0.0114
     13 C          67.3033   95.6073    8.8079 C.ar    1  UNL1        0.0577
     14 CL         67.8488   96.4502    7.6934 Cl      1  UNL1       -0.0822
     15 C          66.3609   96.2066    9.8093 C.ar    1  UNL1        0.0114
     16 C          65.8154   95.3636   10.9238 C.ar    1  UNL1        0.0009
     17 N          63.4847   89.7071   16.6089 N.pl3   1  UNL1       -0.2150
     18 H          63.2427   90.1232   17.4677 H       1  UNL1        0.1737
     19 C          64.1301   81.7090   12.9674 C.3     1  UNL1        0.0897
     20 N          63.8839   82.9525   13.7694 N.3     1  UNL1       -0.2709
     21 C          63.0745   82.7713   15.0193 C.3     1  UNL1        0.0768
     22 C          62.6610   83.8055   16.0238 C.3     1  UNL1        0.0433
     23 C          62.9547   85.2765   16.0268 C.ar    1  UNL1       -0.0246
     24 C          62.3516   85.9534   17.2217 C.ar    1  UNL1       -0.0032
     25 C          62.5282   87.4303   17.4158 C.ar    1  UNL1        0.0155
     26 C          63.3081   88.2303   16.4149 C.ar    1  UNL1        0.0644
     27 C          63.9112   87.5533   15.2198 C.ar    1  UNL1        0.0113
     28 C          63.7345   86.0765   15.0258 C.ar    1  UNL1       -0.0234
     29 C          64.4132   85.6030   13.7747 C.3     1  UNL1        0.0434
     30 C          64.4797   84.2129   13.2155 C.3     1  UNL1        0.0768
@<TRIPOS>BOND
     1    19    20    1
     2    20    21    1
     3    21    22    1
     4    22    23    1
     5    23    24   ar
     6    24    25   ar
     7    25    26   ar
     8    26    17    1
     9    17     1    1
    10     1     2    2
    11     1     3    2
    12     1     4    1
    13     4     5   ar
    14     5     6   ar
    15     6     7   ar
    16     7    10    1
    17    10    11   ar
    18    11    12   ar
    19    12    13   ar
    20    13    14    1
    21    13    15   ar
    22    15    16   ar
    23     7     8   ar
    24     8     9   ar
    25    26    27   ar
    26    27    28   ar
    27    28    29    1
    28    29    30    1
    29    30    20    1
    30    28    23   ar
    31     9     4   ar
    32    16    10   ar
    33    17    18    1
@<TRIPOS>MOLECULE
*****
 30 33 0 0 0
SMALL
GASTEIGER

@<TRIPOS>ATOM
      1 S          59.3716   89.0844    7.3611 S.O2    1  UNL1        0.0736
      2 O          59.7328   90.1312    8.3729 O.2     1  UNL1       -0.1499
      3 O          59.0104   88.0376    6.3493 O.2     1  UNL1       -0.1499
      4 C          60.1763   88.0720    8.1212 C.ar    1  UNL1        0.1252
      5 C          60.1383   86.6278    7.7179 C.ar    1  UNL1        0.0202
      6 C          60.9429   85.6154    8.4779 C.ar    1  UNL1        0.0014
      7 C          61.7856   86.0473    9.6413 C.ar    1  UNL1        0.0001
      8 C          61.8236   87.4916   10.0446 C.ar    1  UNL1        0.0014
      9 C          61.0189   88.5039    9.2845 C.ar    1  UNL1        0.0202
     10 C          62.5902   85.0350   10.4013 C.ar    1  UNL1        0.0001
     11 C          62.4939   84.9699   11.8968 C.ar    1  UNL1        0.0009
     12 C          63.2985   83.9575   12.6569 C.ar    1  UNL1        0.0114
     13 C          64.1995   83.0102   11.9214 C.ar    1  UNL1        0.0577
     14 CL         65.0042   81.9978   12.6814 Cl      1  UNL1       -0.0822
     15 C          64.2959   83.0753   10.4259 C.ar    1  UNL1        0.0114
     16 C          63.4912   84.0877    9.6659 C.ar    1  UNL1        0.0009
     17 N          58.5670   90.0967    6.6010 N.pl3   1  UNL1       -0.2150
     18 H          57.6204   90.2440    6.8279 H       1  UNL1        0.1737
     19 C          64.7008   92.9586    0.9590 C.3     1  UNL1        0.0897
     20 N          63.5031   92.6415    1.8047 N.3     1  UNL1       -0.2709
     21 C          62.2634   93.4287    1.4986 C.3     1  UNL1        0.0768
     22 C          60.9181   93.3479    2.1568 C.3     1  UNL1        0.0433
     23 C          60.4799   92.4601    3.2836 C.ar    1  UNL1       -0.0246
     24 C          59.0432   92.6987    3.6425 C.ar    1  UNL1       -0.0032
     25 C          58.4055   91.9109    4.7483 C.ar    1  UNL1        0.0155
     26 C          59.2046   90.8845    5.4952 C.ar    1  UNL1        0.0644
     27 C          60.6414   90.6459    5.1364 C.ar    1  UNL1        0.0113
     28 C          61.2790   91.4337    4.0306 C.ar    1  UNL1       -0.0234
     29 C          62.7137   91.0417    3.8351 C.3     1  UNL1        0.0434
     30 C          63.7034   91.5792    2.8446 C.3     1  UNL1        0.0768
@<TRIPOS>BOND
     1    19    20    1
     2    20    21    1
     3    21    22    1
     4    22    23    1
     5    23    24   ar
     6    24    25   ar
     7    25    26   ar
     8    26    17    1
     9    17     1    1
    10     1     2    2
    11     1     3    2
    12     1     4    1
    13     4     5   ar
    14     5     6   ar
    15     6     7   ar
    16     7    10    1
    17    10    11   ar
    18    11    12   ar
    19    12    13   ar
    20    13    14    1
    21    13    15   ar
    22    15    16   ar
    23     7     8   ar
    24     8     9   ar
    25    26    27   ar
    26    27    28   ar
    27    28    29    1
    28    29    30    1
    29    30    20    1
    30    28    23   ar
    31     9     4   ar
    32    16    10   ar
    33    17    18    1
@<TRIPOS>MOLECULE
*****
 30 33 0 0 0
SMALL
GASTEIGER

@<TRIPOS>ATOM
      1 S          64.3032   89.8966   13.7110 S.O2    1  UNL1        0.0736
      2 O          64.8183   89.7083   15.1071 O.2     1  UNL1       -0.1499
      3 O          63.7881   90.0848   12.3148 O.2     1  UNL1       -0.1499
      4 C          63.9860   88.4327   13.6306 C.ar    1  UNL1        0.1252
      5 C          63.2159   87.8953   12.4609 C.ar    1  UNL1        0.0202
      6 C          62.8987   86.4315   12.3804 C.ar    1  UNL1        0.0014
      7 C          63.3515   85.5049   13.4697 C.ar    1  UNL1        0.0001
      8 C          64.1216   86.0423   14.6394 C.ar    1  UNL1        0.0014
      9 C          64.4389   87.5062   14.7198 C.ar    1  UNL1        0.0202
     10 C          63.0343   84.0411   13.3893 C.ar    1  UNL1        0.0001
     11 C          62.4926   83.3239   14.5903 C.ar    1  UNL1        0.0009
     12 C          62.1754   81.8601   14.5098 C.ar    1  UNL1        0.0114
     13 C          62.3998   81.1133   13.2284 C.ar    1  UNL1        0.0577
     14 CL         62.0826   79.6495   13.1480 Cl      1  UNL1       -0.0822
     15 C          62.9415   81.8305   12.0274 C.ar    1  UNL1        0.0114
     16 C          63.2588   83.2944   12.1079 C.ar    1  UNL1        0.0009
     17 N          64.6204   91.3604   13.7913 N.pl3   1  UNL1       -0.2150
     18 H          64.2612   91.9021   14.5308 H       1  UNL1        0.1737
     19 C          67.1590   96.8538    7.3863 C.3     1  UNL1        0.0897
     20 N          66.9594   95.8145    8.4493 N.3     1  UNL1       -0.2709
     21 C          68.1191   94.8923    8.6839 C.3     1  UNL1        0.0768
     22 C          68.2322   93.7628    9.6642 C.3     1  UNL1        0.0433
     23 C          67.2138   93.2762   10.6522 C.ar    1  UNL1       -0.0246
     24 C          67.7325   92.1147   11.4470 C.ar    1  UNL1       -0.0032
     25 C          66.8680   91.4760   12.4934 C.ar    1  UNL1        0.0155
     26 C          65.4849   91.9990   12.7450 C.ar    1  UNL1        0.0644
     27 C          64.9661   93.1606   11.9501 C.ar    1  UNL1        0.0113
     28 C          65.8306   93.7992   10.9038 C.ar    1  UNL1       -0.0234
     29 C          65.1242   94.9378   10.2295 C.3     1  UNL1        0.0434
     30 C          65.6265   95.8347    9.1372 C.3     1  UNL1        0.0768
@<TRIPOS>BOND
     1    19    20    1
     2    20    21    1
     3    21    22    1
     4    22    23    1
     5    23    24   ar
     6    24    25   ar
     7    25    26   ar
     8    26    17    1
     9    17     1    1
    10     1     2    2
    11     1     3    2
    12     1     4    1
    13     4     5   ar
    14     5     6   ar
    15     6     7   ar
    16     7    10    1
    17    10    11   ar
    18    11    12   ar
    19    12    13   ar
    20    13    14    1
    21    13    15   ar
    22    15    16   ar
    23     7     8   ar
    24     8     9   ar
    25    26    27   ar
    26    27    28   ar
    27    28    29    1
    28    29    30    1
    29    30    20    1
    30    28    23   ar
    31     9     4   ar
    32    16    10   ar
    33    17    18    1
@<TRIPOS>MOLECULE
*****
 30 33 0 0 0
SMALL
GASTEIGER

@<TRIPOS>ATOM
      1 S          59.3849   90.8028    5.3247 S.O2    1  UNL1        0.0736
      2 O          60.5640   89.9249    5.6229 O.2     1  UNL1       -0.1499
      3 O          58.2058   91.6807    5.0264 O.2     1  UNL1       -0.1499
      4 C          60.1952   91.5439    4.3027 C.ar    1  UNL1        0.1252
      5 C          61.6465   91.2151    4.1141 C.ar    1  UNL1        0.0202
      6 C          62.4567   91.9561    3.0922 C.ar    1  UNL1        0.0014
      7 C          61.8157   93.0260    2.2588 C.ar    1  UNL1        0.0001
      8 C          60.3643   93.3547    2.4474 C.ar    1  UNL1        0.0014
      9 C          59.5541   92.6137    3.4693 C.ar    1  UNL1        0.0202
     10 C          62.6259   93.7670    1.2369 C.ar    1  UNL1        0.0001
     11 C          64.1217   93.6550    1.2408 C.ar    1  UNL1        0.0009
     12 C          64.9319   94.3960    0.2189 C.ar    1  UNL1        0.0114
     13 C          64.2464   95.2491   -0.8070 C.ar    1  UNL1        0.0577
     14 CL         65.0566   95.9901   -1.8289 Cl      1  UNL1       -0.0822
     15 C          62.7506   95.3610   -0.8109 C.ar    1  UNL1        0.0114
     16 C          61.9403   94.6200    0.2110 C.ar    1  UNL1        0.0009
     17 N          58.5747   90.0618    6.3466 N.pl3   1  UNL1       -0.2150
     18 H          57.5950   90.1576    6.3619 H       1  UNL1        0.1737
     19 C          63.6363   87.6083   13.1294 C.3     1  UNL1        0.0897
     20 N          62.7250   87.7758   11.9498 N.3     1  UNL1       -0.2709
     21 C          62.1374   86.5114   11.3966 C.3     1  UNL1        0.0768
     22 C          61.2015   86.3445   10.2364 C.3     1  UNL1        0.0433
     23 C          60.6221   87.4006    9.3426 C.ar    1  UNL1       -0.0246
     24 C          59.7263   86.8037    8.2981 C.ar    1  UNL1       -0.0032
     25 C          59.0437   87.6907    7.2994 C.ar    1  UNL1        0.0155
     26 C          59.2571   89.1747    7.3453 C.ar    1  UNL1        0.0644
     27 C          60.1530   89.7717    8.3898 C.ar    1  UNL1        0.0113
     28 C          60.8355   88.8847    9.3885 C.ar    1  UNL1       -0.0234
     29 C          61.6810   89.6790   10.3394 C.3     1  UNL1        0.0434
     30 C          62.5219   89.1856   11.4792 C.3     1  UNL1        0.0768
@<TRIPOS>BOND
     1    19    20    1
     2    20    21    1
     3    21    22    1
     4    22    23    1
     5    23    24   ar
     6    24    25   ar
     7    25    26   ar
     8    26    17    1
     9    17     1    1
    10     1     2    2
    11     1     3    2
    12     1     4    1
    13     4     5   ar
    14     5     6   ar
    15     6     7   ar
    16     7    10    1
    17    10    11   ar
    18    11    12   ar
    19    12    13   ar
    20    13    14    1
    21    13    15   ar
    22    15    16   ar
    23     7     8   ar
    24     8     9   ar
    25    26    27   ar
    26    27    28   ar
    27    28    29    1
    28    29    30    1
    29    30    20    1
    30    28    23   ar
    31     9     4   ar
    32    16    10   ar
    33    17    18    1
@<TRIPOS>MOLECULE
*****
 30 33 0 0 0
SMALL
GASTEIGER

@<TRIPOS>ATOM
      1 S          62.3432   88.5925   10.9151 S.O2    1  UNL1        0.0736
      2 O          61.9002   88.9228   12.3096 O.2     1  UNL1       -0.1499
      3 O          62.7863   88.2622    9.5207 O.2     1  UNL1       -0.1499
      4 C          62.3784   87.1358   11.2713 C.ar    1  UNL1        0.1252
      5 C          63.0666   86.6870   12.5263 C.ar    1  UNL1        0.0202
      6 C          63.1018   85.2303   12.8825 C.ar    1  UNL1        0.0014
      7 C          62.4488   84.2224   11.9838 C.ar    1  UNL1        0.0001
      8 C          61.7606   84.6712   10.7288 C.ar    1  UNL1        0.0014
      9 C          61.7254   86.1279   10.3726 C.ar    1  UNL1        0.0202
     10 C          62.4840   82.7658   12.3400 C.ar    1  UNL1        0.0001
     11 C          62.0622   82.3178   13.7080 C.ar    1  UNL1        0.0009
     12 C          62.0975   80.8612   14.0642 C.ar    1  UNL1        0.0114
     13 C          62.5544   79.8524   13.0524 C.ar    1  UNL1        0.0577
     14 CL         62.5897   78.3958   13.4086 Cl      1  UNL1       -0.0822
     15 C          62.9762   80.3004   11.6844 C.ar    1  UNL1        0.0114
     16 C          62.9410   81.7571   11.3282 C.ar    1  UNL1        0.0009
     17 N          62.3081   90.0491   10.5589 N.pl3   1  UNL1       -0.2150
     18 H          61.6025   90.3938    9.9651 H       1  UNL1        0.1737
     19 C          68.0729   93.6148   16.1891 C.3     1  UNL1        0.0897
     20 N          67.1645   93.1951   15.0716 N.3     1  UNL1       -0.2709
     21 C          67.2266   94.0365   13.8313 C.3     1  UNL1        0.0768
     22 C          66.4537   93.8801   12.5555 C.3     1  UNL1        0.0433
     23 C          65.4277   92.8437   12.2045 C.ar    1  UNL1       -0.0246
     24 C          64.8943   93.0482   10.8176 C.ar    1  UNL1       -0.0032
     25 C          63.8543   92.1167   10.2690 C.ar    1  UNL1        0.0155
     26 C          63.3479   90.9806   11.1074 C.ar    1  UNL1        0.0644
     27 C          63.8815   90.7761   12.4944 C.ar    1  UNL1        0.0113
     28 C          64.9213   91.7076   13.0429 C.ar    1  UNL1       -0.0234
     29 C          65.3159   91.3274   14.4393 C.3     1  UNL1        0.0434
     30 C          66.3141   91.9893   15.3421 C.3     1  UNL1        0.0768
@<TRIPOS>BOND
     1    19    20    1
     2    20    21    1
     3    21    22    1
     4    22    23    1
     5    23    24   ar
     6    24    25   ar
     7    25    26   ar
     8    26    17    1
     9    17     1    1
    10     1     2    2
    11     1     3    2
    12     1     4    1
    13     4     5   ar
    14     5     6   ar
    15     6     7   ar
    16     7    10    1
    17    10    11   ar
    18    11    12   ar
    19    12    13   ar
    20    13    14    1
    21    13    15   ar
    22    15    16   ar
    23     7     8   ar
    24     8     9   ar
    25    26    27   ar
    26    27    28   ar
    27    28    29    1
    28    29    30    1
    29    30    20    1
    30    28    23   ar
    31     9     4   ar
    32    16    10   ar
    33    17    18    1
@<TRIPOS>MOLECULE
*****
 30 33 0 0 0
SMALL
GASTEIGER

@<TRIPOS>ATOM
      1 S          63.8623   88.2385   14.9720 S.O2    1  UNL1        0.0736
      2 O          64.2731   88.8626   13.6714 O.2     1  UNL1       -0.1499
      3 O          63.4515   87.6145   16.2726 O.2     1  UNL1       -0.1499
      4 C          63.7266   86.9088   14.2912 C.ar    1  UNL1        0.1252
      5 C          63.2104   86.8355   12.8847 C.ar    1  UNL1        0.0202
      6 C          63.0747   85.5059   12.2039 C.ar    1  UNL1        0.0014
      7 C          63.4553   84.2494   12.9295 C.ar    1  UNL1        0.0001
      8 C          63.9716   84.3226   14.3360 C.ar    1  UNL1        0.0014
      9 C          64.1073   85.6524   15.0168 C.ar    1  UNL1        0.0202
     10 C          63.3197   82.9197   12.2487 C.ar    1  UNL1        0.0001
     11 C          62.7650   81.7457   12.9997 C.ar    1  UNL1        0.0009
     12 C          62.6293   80.4160   12.3189 C.ar    1  UNL1        0.0114
     13 C          63.0483   80.2604   10.8870 C.ar    1  UNL1        0.0577
     14 CL         62.9127   78.9307   10.2061 Cl      1  UNL1       -0.0822
     15 C          63.6030   81.4344   10.1360 C.ar    1  UNL1        0.0114
     16 C          63.7387   82.7641   10.8169 C.ar    1  UNL1        0.0009
     17 N          63.9979   89.5682   15.6528 N.pl3   1  UNL1       -0.2150
     18 H          63.6675   89.6862   16.5727 H       1  UNL1        0.1737
     19 C          66.2590   94.9754    9.0728 C.3     1  UNL1        0.0897
     20 N          66.0167   94.2093   10.3395 N.3     1  UNL1       -0.2709
     21 C          66.6851   94.7535   11.5673 C.3     1  UNL1        0.0768
     22 C          66.6399   94.2232   12.9695 C.3     1  UNL1        0.0433
     23 C          65.9152   93.0177   13.4907 C.ar    1  UNL1       -0.0246
     24 C          66.1346   92.8408   14.9640 C.ar    1  UNL1       -0.0032
     25 C          65.4955   91.6909   15.6847 C.ar    1  UNL1        0.0155
     26 C          64.6370   90.7180   14.9321 C.ar    1  UNL1        0.0644
     27 C          64.4176   90.8950   13.4588 C.ar    1  UNL1        0.0113
     28 C          65.0567   92.0448   12.7381 C.ar    1  UNL1       -0.0234
     29 C          64.7108   92.0371   11.2786 C.3     1  UNL1        0.0434
     30 C          65.1380   93.0003   10.2111 C.3     1  UNL1        0.0768
@<TRIPOS>BOND
     1    19    20    1
     2    20    21    1
     3    21    22    1
     4    22    23    1
     5    23    24   ar
     6    24    25   ar
     7    25    26   ar
     8    26    17    1
     9    17     1    1
    10     1     2    2
    11     1     3    2
    12     1     4    1
    13     4     5   ar
    14     5     6   ar
    15     6     7   ar
    16     7    10    1
    17    10    11   ar
    18    11    12   ar
    19    12    13   ar
    20    13    14    1
    21    13    15   ar
    22    15    16   ar
    23     7     8   ar
    24     8     9   ar
    25    26    27   ar
    26    27    28   ar
    27    28    29    1
    28    29    30    1
    29    30    20    1
    30    28    23   ar
    31     9     4   ar
    32    16    10   ar
    33    17    18    1
@<TRIPOS>MOLECULE
*****
 30 33 0 0 0
SMALL
GASTEIGER

@<TRIPOS>ATOM
      1 S          62.7491   88.2423   12.0678 S.O2    1  UNL1        0.0736
      2 O          63.7795   88.1393   13.1530 O.2     1  UNL1       -0.1499
      3 O          61.7187   88.3452   10.9827 O.2     1  UNL1       -0.1499
      4 C          62.7580   86.7498   11.9177 C.ar    1  UNL1        0.1252
      5 C          63.2450   85.8857   13.0430 C.ar    1  UNL1        0.0202
      6 C          63.2539   84.3933   12.8929 C.ar    1  UNL1        0.0014
      7 C          62.7759   83.7649   11.6175 C.ar    1  UNL1        0.0001
      8 C          62.2889   84.6289   10.4922 C.ar    1  UNL1        0.0014
      9 C          62.2800   86.1214   10.6423 C.ar    1  UNL1        0.0202
     10 C          62.7848   82.2725   11.4674 C.ar    1  UNL1        0.0001
     11 C          63.0730   81.6547   10.1313 C.ar    1  UNL1        0.0009
     12 C          63.0820   80.1623    9.9812 C.ar    1  UNL1        0.0114
     13 C          62.8027   79.2875   11.1674 C.ar    1  UNL1        0.0577
     14 CL         62.8116   77.7951   11.0173 Cl      1  UNL1       -0.0822
     15 C          62.5144   79.9053   12.5035 C.ar    1  UNL1        0.0114
     16 C          62.5055   81.3978   12.6535 C.ar    1  UNL1        0.0009
     17 N          62.7402   89.7347   12.2179 N.pl3   1  UNL1       -0.2150
     18 H          62.1612   90.2839   11.6414 H       1  UNL1        0.1737
     19 C          69.6353   93.9357   15.7470 C.3     1  UNL1        0.0897
     20 N          68.3661   93.2233   15.3841 N.3     1  UNL1       -0.2709
     21 C          67.4083   92.9839   16.5135 C.3     1  UNL1        0.0768
     22 C          66.0705   92.3066   16.4774 C.3     1  UNL1        0.0433
     23 C          65.3599   91.7014   15.3032 C.ar    1  UNL1       -0.0246
     24 C          64.0349   91.1232   15.7030 C.ar    1  UNL1       -0.0032
     25 C          63.1616   90.4676   14.6746 C.ar    1  UNL1        0.0155
     26 C          63.6134   90.3902   13.2463 C.ar    1  UNL1        0.0644
     27 C          64.9385   90.9685   12.8465 C.ar    1  UNL1        0.0113
     28 C          65.8117   91.6241   13.8749 C.ar    1  UNL1       -0.0234
     29 C          67.0857   92.1329   13.2682 C.3     1  UNL1        0.0434
     30 C          68.2225   92.8445   13.9398 C.3     1  UNL1        0.0768
@<TRIPOS>BOND
     1    19    20    1
     2    20    21    1
     3    21    22    1
     4    22    23    1
     5    23    24   ar
     6    24    25   ar
     7    25    26   ar
     8    26    17    1
     9    17     1    1
    10     1     2    2
    11     1     3    2
    12     1     4    1
    13     4     5   ar
    14     5     6   ar
    15     6     7   ar
    16     7    10    1
    17    10    11   ar
    18    11    12   ar
    19    12    13   ar
    20    13    14    1
    21    13    15   ar
    22    15    16   ar
    23     7     8   ar
    24     8     9   ar
    25    26    27   ar
    26    27    28   ar
    27    28    29    1
    28    29    30    1
    29    30    20    1
    30    28    23   ar
    31     9     4   ar
    32    16    10   ar
    33    17    18    1
