@<TRIPOS>MOLECULE
*****
 27 30 0 0 0
SMALL
GASTEIGER

@<TRIPOS>ATOM
      1 C          65.0742   91.2950   13.7200 C.2     1  UNL1        0.0919
      2 C          64.8976   89.9964   14.4497 C.2     1  UNL1        0.0183
      3 C          63.9971   88.9367   13.8876 C.2     1  UNL1        0.0511
      4 C          63.2732   89.1754   12.5958 C.2     1  UNL1        0.2322
      5 N          62.3267   88.3233   11.8033 N.2     1  UNL1       -0.0308
      6 C          61.9184   89.0953   10.5837 C.2     1  UNL1        0.3752
      7 N          62.6125   90.4244   10.6224 N.2     1  UNL1       -0.0347
      8 C          63.4499   90.4739   11.8660 C.2     1  UNL1        0.2191
      9 C          64.3504   91.5337   12.4281 C.3     1  UNL1        0.1226
     10 C          60.9805   88.6212    9.5132 C.ar    1  UNL1        0.0884
     11 C          60.4964   87.2015    9.5152 C.ar    1  UNL1        0.0077
     12 C          59.5586   86.7274    8.4448 C.ar    1  UNL1        0.0003
     13 C          59.1049   87.6730    7.3725 C.ar    1  UNL1        0.0000
     14 C          59.5890   89.0928    7.3706 C.ar    1  UNL1        0.0002
     15 C          60.5268   89.5669    8.4409 C.ar    1  UNL1        0.0077
     16 C          59.1352   90.0384    6.2982 C.ar    1  UNL1        0.0000
     17 C          60.1465   90.7768    5.4723 C.ar    1  UNL1        0.0000
     18 C          59.6927   91.7224    4.4000 C.ar    1  UNL1        0.0000
     19 C          58.2277   91.9296    4.1536 C.ar    1  UNL1        0.0000
     20 C          57.2164   91.1913    4.9795 C.ar    1  UNL1        0.0000
     21 C          57.6702   90.2457    6.0518 C.ar    1  UNL1        0.0000
     22 S          65.9747   92.3547   14.2821 S.O2    1  UNL1        0.0054
     23 O          65.2086   92.3219   15.5713 O.2     1  UNL1       -0.1689
     24 O          66.7408   92.3876   12.9929 O.2     1  UNL1       -0.1689
     25 C          66.8752   93.4145   14.8442 C.3     1  UNL1        0.1556
     26 C          68.9388   92.4014   16.0546 C.3     1  UNL1        0.0019
     27 C          67.6426   93.1545   16.1065 C.3     1  UNL1        0.0257
@<TRIPOS>BOND
     1    26    27    1
     2    27    25    1
     3    25    22    1
     4    22    23    2
     5    22    24    2
     6    22     1    1
     7     1     2    2
     8     2     3    1
     9     3     4    2
    10     4     5    1
    11     5     6    2
    12     6    10    1
    13    10    11   ar
    14    11    12   ar
    15    12    13   ar
    16    13    14   ar
    17    14    16    1
    18    16    17   ar
    19    17    18   ar
    20    18    19   ar
    21    19    20   ar
    22    20    21   ar
    23    14    15   ar
    24     6     7    1
    25     7     8    2
    26     8     9    1
    27     9     1    1
    28     8     4    1
    29    15    10   ar
    30    21    16   ar
@<TRIPOS>MOLECULE
*****
 27 30 0 0 0
SMALL
GASTEIGER

@<TRIPOS>ATOM
      1 C          65.8065   93.9409   11.0999 C.2     1  UNL1        0.0919
      2 C          64.8860   93.3159   10.0939 C.2     1  UNL1        0.0183
      3 C          64.1295   92.0685   10.4428 C.2     1  UNL1        0.0511
      4 C          64.2936   91.4460   11.7976 C.2     1  UNL1        0.2322
      5 N          63.6839   90.2262   12.4223 N.2     1  UNL1       -0.0308
      6 C          64.2277   90.0972   13.8143 C.2     1  UNL1        0.3752
      7 N          65.1734   91.2374   14.0500 N.2     1  UNL1       -0.0347
      8 C          65.2142   92.0710   12.8035 C.2     1  UNL1        0.2191
      9 C          65.9706   93.3184   12.4547 C.3     1  UNL1        0.1226
     10 C          63.8857   89.0176   14.7979 C.ar    1  UNL1        0.0884
     11 C          63.5231   89.3758   16.2087 C.ar    1  UNL1        0.0077
     12 C          63.1811   88.2962   17.1923 C.ar    1  UNL1        0.0003
     13 C          63.2017   86.8585   16.7652 C.ar    1  UNL1        0.0000
     14 C          63.5643   86.5003   15.3545 C.ar    1  UNL1        0.0002
     15 C          63.9063   87.5799   14.3708 C.ar    1  UNL1        0.0077
     16 C          63.5849   85.0625   14.9274 C.ar    1  UNL1        0.0000
     17 C          62.4871   84.1360   15.3592 C.ar    1  UNL1        0.0000
     18 C          62.5078   82.6983   14.9321 C.ar    1  UNL1        0.0000
     19 C          63.6262   82.1870   14.0732 C.ar    1  UNL1        0.0000
     20 C          64.7240   83.1135   13.6414 C.ar    1  UNL1        0.0000
     21 C          64.7034   84.5512   14.0685 C.ar    1  UNL1        0.0000
     22 S          66.5630   95.1883   10.7510 S.O2    1  UNL1        0.0054
     23 O          65.4285   96.0213   11.2697 O.2     1  UNL1       -0.1689
     24 O          67.6974   94.3553   10.2323 O.2     1  UNL1       -0.1689
     25 C          67.3194   96.4358   10.4021 C.3     1  UNL1        0.1556
     26 C          66.3486   96.5701    7.9960 C.3     1  UNL1        0.0019
     27 C          67.4550   96.8544    8.9682 C.3     1  UNL1        0.0257
@<TRIPOS>BOND
     1    26    27    1
     2    27    25    1
     3    25    22    1
     4    22    23    2
     5    22    24    2
     6    22     1    1
     7     1     2    2
     8     2     3    1
     9     3     4    2
    10     4     5    1
    11     5     6    2
    12     6    10    1
    13    10    11   ar
    14    11    12   ar
    15    12    13   ar
    16    13    14   ar
    17    14    16    1
    18    16    17   ar
    19    17    18   ar
    20    18    19   ar
    21    19    20   ar
    22    20    21   ar
    23    14    15   ar
    24     6     7    1
    25     7     8    2
    26     8     9    1
    27     9     1    1
    28     8     4    1
    29    15    10   ar
    30    21    16   ar
@<TRIPOS>MOLECULE
*****
 27 30 0 0 0
SMALL
GASTEIGER

@<TRIPOS>ATOM
      1 C          63.0402   84.0942   13.4202 C.2     1  UNL1        0.0919
      2 C          62.3059   84.5867   12.2085 C.2     1  UNL1        0.0183
      3 C          62.3696   86.0370   11.8309 C.2     1  UNL1        0.0511
      4 C          63.1675   86.9948   12.6650 C.2     1  UNL1        0.2322
      5 N          63.4137   88.4693   12.5413 N.2     1  UNL1       -0.0308
      6 C          64.3001   88.8882   13.6765 C.2     1  UNL1        0.3752
      7 N          64.6018   87.6726   14.5019 N.2     1  UNL1       -0.0347
      8 C          63.9018   86.5024   13.8767 C.2     1  UNL1        0.2191
      9 C          63.8381   85.0521   14.2543 C.3     1  UNL1        0.1226
     10 C          64.7975   90.2786   13.9401 C.ar    1  UNL1        0.0884
     11 C          64.8008   90.8214   15.3384 C.ar    1  UNL1        0.0077
     12 C          65.2982   92.2118   15.6020 C.ar    1  UNL1        0.0003
     13 C          65.7923   93.0592   14.4673 C.ar    1  UNL1        0.0000
     14 C          65.7890   92.5164   13.0690 C.ar    1  UNL1        0.0002
     15 C          65.2916   91.1260   12.8054 C.ar    1  UNL1        0.0077
     16 C          66.2831   93.3639   11.9342 C.ar    1  UNL1        0.0000
     17 C          66.9259   92.7200   10.7417 C.ar    1  UNL1        0.0000
     18 C          67.4199   93.5675    9.6070 C.ar    1  UNL1        0.0000
     19 C          67.2713   95.0590    9.6649 C.ar    1  UNL1        0.0000
     20 C          66.6285   95.7030   10.8574 C.ar    1  UNL1        0.0000
     21 C          66.1344   94.8554   11.9921 C.ar    1  UNL1        0.0000
     22 S          62.9766   82.6439   13.7978 S.O2    1  UNL1        0.0054
     23 O          62.9031   82.2695   12.3471 O.2     1  UNL1       -0.1689
     24 O          63.0501   83.0184   15.2484 O.2     1  UNL1       -0.1689
     25 C          62.9130   81.1936   14.1754 C.3     1  UNL1        0.1556
     26 C          60.3636   80.6957   14.1230 C.3     1  UNL1        0.0019
     27 C          61.7638   80.3479   13.7127 C.3     1  UNL1        0.0257
@<TRIPOS>BOND
     1    26    27    1
     2    27    25    1
     3    25    22    1
     4    22    23    2
     5    22    24    2
     6    22     1    1
     7     1     2    2
     8     2     3    1
     9     3     4    2
    10     4     5    1
    11     5     6    2
    12     6    10    1
    13    10    11   ar
    14    11    12   ar
    15    12    13   ar
    16    13    14   ar
    17    14    16    1
    18    16    17   ar
    19    17    18   ar
    20    18    19   ar
    21    19    20   ar
    22    20    21   ar
    23    14    15   ar
    24     6     7    1
    25     7     8    2
    26     8     9    1
    27     9     1    1
    28     8     4    1
    29    15    10   ar
    30    21    16   ar
@<TRIPOS>MOLECULE
*****
 27 30 0 0 0
SMALL
GASTEIGER

@<TRIPOS>ATOM
      1 C          63.4936   82.4629   12.4707 C.2     1  UNL1        0.0919
      2 C          63.8231   82.0210   13.8658 C.2     1  UNL1        0.0183
      3 C          64.0341   83.0408   14.9454 C.2     1  UNL1        0.0511
      4 C          63.9157   84.5024   14.6300 C.2     1  UNL1        0.2322
      5 N          64.0684   85.7284   15.4807 N.2     1  UNL1       -0.0308
      6 C          63.8333   86.9280   14.6114 C.2     1  UNL1        0.3752
      7 N          63.5353   86.4435   13.2234 N.2     1  UNL1       -0.0347
      8 C          63.5863   84.9443   13.2350 C.2     1  UNL1        0.2191
      9 C          63.3752   83.9246   12.1553 C.3     1  UNL1        0.1226
     10 C          63.8868   88.3607   15.0526 C.ar    1  UNL1        0.0884
     11 C          63.3388   88.7537   16.3925 C.ar    1  UNL1        0.0077
     12 C          63.3922   90.1863   16.8337 C.ar    1  UNL1        0.0003
     13 C          63.9938   91.2259   15.9352 C.ar    1  UNL1        0.0000
     14 C          64.5418   90.8328   14.5953 C.ar    1  UNL1        0.0002
     15 C          64.4883   89.4002   14.1541 C.ar    1  UNL1        0.0077
     16 C          65.1433   91.8725   13.6967 C.ar    1  UNL1        0.0000
     17 C          66.0845   92.8961   14.2591 C.ar    1  UNL1        0.0000
     18 C          66.6860   93.9357   13.3605 C.ar    1  UNL1        0.0000
     19 C          66.3463   93.9516   11.8996 C.ar    1  UNL1        0.0000
     20 C          65.4051   92.9280   11.3372 C.ar    1  UNL1        0.0000
     21 C          64.8036   91.8884   12.2358 C.ar    1  UNL1        0.0000
     22 S          63.2826   81.4432   11.3911 S.O2    1  UNL1        0.0054
     23 O          63.9088   82.3709   10.3925 O.2     1  UNL1       -0.1689
     24 O          62.6564   80.5155   12.3898 O.2     1  UNL1       -0.1689
     25 C          63.0715   80.4234   10.3115 C.3     1  UNL1        0.1556
     26 C          63.0890   77.8742    9.8106 C.3     1  UNL1        0.0019
     27 C          62.6593   79.0264   10.6696 C.3     1  UNL1        0.0257
@<TRIPOS>BOND
     1    26    27    1
     2    27    25    1
     3    25    22    1
     4    22    23    2
     5    22    24    2
     6    22     1    1
     7     1     2    2
     8     2     3    1
     9     3     4    2
    10     4     5    1
    11     5     6    2
    12     6    10    1
    13    10    11   ar
    14    11    12   ar
    15    12    13   ar
    16    13    14   ar
    17    14    16    1
    18    16    17   ar
    19    17    18   ar
    20    18    19   ar
    21    19    20   ar
    22    20    21   ar
    23    14    15   ar
    24     6     7    1
    25     7     8    2
    26     8     9    1
    27     9     1    1
    28     8     4    1
    29    15    10   ar
    30    21    16   ar
@<TRIPOS>MOLECULE
*****
 27 30 0 0 0
SMALL
GASTEIGER

@<TRIPOS>ATOM
      1 C          66.8911   92.3649   14.3215 C.2     1  UNL1        0.0919
      2 C          66.7386   93.3422   13.1938 C.2     1  UNL1        0.0183
      3 C          65.6767   93.1300   12.1559 C.2     1  UNL1        0.0511
      4 C          64.7673   91.9406   12.2456 C.2     1  UNL1        0.2322
      5 N          63.6377   91.4729   11.3764 N.2     1  UNL1       -0.0308
      6 C          63.0921   90.2066   11.9669 C.2     1  UNL1        0.3752
      7 N          63.8844   89.8916   13.2010 N.2     1  UNL1       -0.0347
      8 C          64.9197   90.9633   13.3732 C.2     1  UNL1        0.2191
      9 C          65.9816   91.1755   14.4112 C.3     1  UNL1        0.1226
     10 C          61.9538   89.3974   11.4194 C.ar    1  UNL1        0.0884
     11 C          60.5632   89.6114   11.9394 C.ar    1  UNL1        0.0077
     12 C          59.4250   88.8022   11.3919 C.ar    1  UNL1        0.0003
     13 C          59.6775   87.7790   10.3245 C.ar    1  UNL1        0.0000
     14 C          61.0681   87.5651    9.8046 C.ar    1  UNL1        0.0002
     15 C          62.2063   88.3742   10.3520 C.ar    1  UNL1        0.0077
     16 C          61.3206   86.5419    8.7371 C.ar    1  UNL1        0.0000
     17 C          62.6731   85.9052    8.6133 C.ar    1  UNL1        0.0000
     18 C          62.9254   84.8820    7.5459 C.ar    1  UNL1        0.0000
     19 C          61.8253   84.4956    6.6022 C.ar    1  UNL1        0.0000
     20 C          60.4728   85.1322    6.7261 C.ar    1  UNL1        0.0000
     21 C          60.2205   86.1554    7.7935 C.ar    1  UNL1        0.0000
     22 S          67.9530   92.5771   15.3595 S.O2    1  UNL1        0.0054
     23 O          69.0118   92.4128   14.3098 O.2     1  UNL1       -0.1689
     24 O          66.8941   92.7414   16.4091 O.2     1  UNL1       -0.1689
     25 C          69.0149   92.7892   16.3974 C.3     1  UNL1        0.1556
     26 C          69.3576   95.3473   16.0996 C.3     1  UNL1        0.0019
     27 C          69.9283   93.9753   16.3043 C.3     1  UNL1        0.0257
@<TRIPOS>BOND
     1    26    27    1
     2    27    25    1
     3    25    22    1
     4    22    23    2
     5    22    24    2
     6    22     1    1
     7     1     2    2
     8     2     3    1
     9     3     4    2
    10     4     5    1
    11     5     6    2
    12     6    10    1
    13    10    11   ar
    14    11    12   ar
    15    12    13   ar
    16    13    14   ar
    17    14    16    1
    18    16    17   ar
    19    17    18   ar
    20    18    19   ar
    21    19    20   ar
    22    20    21   ar
    23    14    15   ar
    24     6     7    1
    25     7     8    2
    26     8     9    1
    27     9     1    1
    28     8     4    1
    29    15    10   ar
    30    21    16   ar
@<TRIPOS>MOLECULE
*****
 27 30 0 0 0
SMALL
GASTEIGER

@<TRIPOS>ATOM
      1 C          62.9631   81.9873   12.7031 C.2     1  UNL1        0.0919
      2 C          63.4927   82.3008   14.0710 C.2     1  UNL1        0.0183
      3 C          63.7121   83.7267   14.4817 C.2     1  UNL1        0.0511
      4 C          63.4019   84.8391   13.5245 C.2     1  UNL1        0.2322
      5 N          63.5156   86.3297   13.6471 N.2     1  UNL1       -0.0308
      6 C          63.0563   86.9376   12.3550 C.2     1  UNL1        0.3752
      7 N          62.6587   85.8226   11.4338 N.2     1  UNL1       -0.0347
      8 C          62.8722   84.5256   12.1566 C.2     1  UNL1        0.2191
      9 C          62.6529   83.0997   11.7459 C.3     1  UNL1        0.1226
     10 C          63.0039   88.4031   12.0395 C.ar    1  UNL1        0.0884
     11 C          61.9994   88.9227   11.0540 C.ar    1  UNL1        0.0077
     12 C          61.9469   90.3881   10.7385 C.ar    1  UNL1        0.0003
     13 C          62.8989   91.3341   11.4085 C.ar    1  UNL1        0.0000
     14 C          63.9034   90.8145   12.3939 C.ar    1  UNL1        0.0002
     15 C          63.9559   89.3490   12.7094 C.ar    1  UNL1        0.0077
     16 C          64.8554   91.7605   13.0638 C.ar    1  UNL1        0.0000
     17 C          65.2449   91.5436   14.4960 C.ar    1  UNL1        0.0000
     18 C          66.1969   92.4896   15.1659 C.ar    1  UNL1        0.0000
     19 C          66.7594   93.6525   14.4035 C.ar    1  UNL1        0.0000
     20 C          66.3699   93.8695   12.9714 C.ar    1  UNL1        0.0000
     21 C          65.4180   92.9235   12.3015 C.ar    1  UNL1        0.0000
     22 S          62.7437   80.5614   12.2924 S.O2    1  UNL1        0.0054
     23 O          63.0244   80.9292   10.8655 O.2     1  UNL1       -0.1689
     24 O          62.4629   80.1936   13.7192 O.2     1  UNL1       -0.1689
     25 C          62.5243   79.1355   11.8817 C.3     1  UNL1        0.1556
     26 C          63.1831   77.3282   10.1354 C.3     1  UNL1        0.0019
     27 C          62.7381   78.7246   10.4550 C.3     1  UNL1        0.0257
@<TRIPOS>BOND
     1    26    27    1
     2    27    25    1
     3    25    22    1
     4    22    23    2
     5    22    24    2
     6    22     1    1
     7     1     2    2
     8     2     3    1
     9     3     4    2
    10     4     5    1
    11     5     6    2
    12     6    10    1
    13    10    11   ar
    14    11    12   ar
    15    12    13   ar
    16    13    14   ar
    17    14    16    1
    18    16    17   ar
    19    17    18   ar
    20    18    19   ar
    21    19    20   ar
    22    20    21   ar
    23    14    15   ar
    24     6     7    1
    25     7     8    2
    26     8     9    1
    27     9     1    1
    28     8     4    1
    29    15    10   ar
    30    21    16   ar
@<TRIPOS>MOLECULE
*****
 27 30 0 0 0
SMALL
GASTEIGER

@<TRIPOS>ATOM
      1 C          61.0001   87.0978    8.8185 C.2     1  UNL1        0.0919
      2 C          60.1553   88.3318    8.7029 C.2     1  UNL1        0.0183
      3 C          60.2955   89.4338    9.7108 C.2     1  UNL1        0.0511
      4 C          61.2804   89.3018   10.8344 C.2     1  UNL1        0.2322
      5 N          61.6371   90.2158   11.9690 N.2     1  UNL1       -0.0308
      6 C          62.7024   89.5465   12.7859 C.2     1  UNL1        0.3752
      7 N          63.0041   88.2190   12.1562 N.2     1  UNL1       -0.0347
      8 C          62.1252   88.0678   10.9500 C.2     1  UNL1        0.2191
      9 C          61.9851   86.9658    9.9421 C.3     1  UNL1        0.1226
     10 C          63.3520   90.1066   14.0166 C.ar    1  UNL1        0.0884
     11 C          62.6365   90.0510   15.3338 C.ar    1  UNL1        0.0077
     12 C          63.2860   90.6110   16.5644 C.ar    1  UNL1        0.0003
     13 C          64.6510   91.2266   16.4778 C.ar    1  UNL1        0.0000
     14 C          65.3666   91.2823   15.1607 C.ar    1  UNL1        0.0002
     15 C          64.7171   90.7222   13.9301 C.ar    1  UNL1        0.0077
     16 C          66.7318   91.8979   15.0742 C.ar    1  UNL1        0.0000
     17 C          67.6001   91.6322   13.8804 C.ar    1  UNL1        0.0000
     18 C          68.9652   92.2478   13.7939 C.ar    1  UNL1        0.0000
     19 C          69.4619   93.1293   14.9013 C.ar    1  UNL1        0.0000
     20 C          68.5935   93.3950   16.0952 C.ar    1  UNL1        0.0000
     21 C          67.2285   92.7794   16.1816 C.ar    1  UNL1        0.0000
     22 S          60.8600   85.9958    7.8106 S.O2    1  UNL1        0.0054
     23 O          59.4202   86.3643    7.6079 O.2     1  UNL1       -0.1689
     24 O          62.2998   85.6273    8.0133 O.2     1  UNL1       -0.1689
     25 C          60.7199   84.8938    6.8027 C.3     1  UNL1        0.1556
     26 C          61.9838   84.1742    4.6499 C.3     1  UNL1        0.0019
     27 C          61.9391   84.3222    6.1419 C.3     1  UNL1        0.0257
@<TRIPOS>BOND
     1    26    27    1
     2    27    25    1
     3    25    22    1
     4    22    23    2
     5    22    24    2
     6    22     1    1
     7     1     2    2
     8     2     3    1
     9     3     4    2
    10     4     5    1
    11     5     6    2
    12     6    10    1
    13    10    11   ar
    14    11    12   ar
    15    12    13   ar
    16    13    14   ar
    17    14    16    1
    18    16    17   ar
    19    17    18   ar
    20    18    19   ar
    21    19    20   ar
    22    20    21   ar
    23    14    15   ar
    24     6     7    1
    25     7     8    2
    26     8     9    1
    27     9     1    1
    28     8     4    1
    29    15    10   ar
    30    21    16   ar
@<TRIPOS>MOLECULE
*****
 27 30 0 0 0
SMALL
GASTEIGER

@<TRIPOS>ATOM
      1 C          65.8894   92.3298   14.9096 C.2     1  UNL1        0.0919
      2 C          65.1342   91.7814   16.0839 C.2     1  UNL1        0.0183
      3 C          63.9318   90.9124   15.8629 C.2     1  UNL1        0.0511
      4 C          63.4844   90.5918   14.4675 C.2     1  UNL1        0.2322
      5 N          62.3452   89.7691   13.9428 N.2     1  UNL1       -0.0308
      6 C          62.3963   89.8090   12.4442 C.2     1  UNL1        0.3752
      7 N          63.5671   90.6564   12.0427 N.2     1  UNL1       -0.0347
      8 C          64.2396   91.1402   13.2932 C.2     1  UNL1        0.2191
      9 C          65.4421   92.0092   13.5143 C.3     1  UNL1        0.1226
     10 C          61.4437   89.1222   11.5109 C.ar    1  UNL1        0.0884
     11 C          59.9829   89.4608   11.5473 C.ar    1  UNL1        0.0077
     12 C          59.0303   88.7740   10.6141 C.ar    1  UNL1        0.0003
     13 C          59.5386   87.7485    9.6445 C.ar    1  UNL1        0.0000
     14 C          60.9995   87.4099    9.6082 C.ar    1  UNL1        0.0002
     15 C          61.9520   88.0967   10.5413 C.ar    1  UNL1        0.0077
     16 C          61.5077   86.3844    8.6385 C.ar    1  UNL1        0.0000
     17 C          60.6306   85.9134    7.5166 C.ar    1  UNL1        0.0000
     18 C          61.1389   84.8880    6.5470 C.ar    1  UNL1        0.0000
     19 C          62.5243   84.3335    6.6994 C.ar    1  UNL1        0.0000
     20 C          63.4014   84.8045    7.8214 C.ar    1  UNL1        0.0000
     21 C          62.8931   85.8299    8.7909 C.ar    1  UNL1        0.0000
     22 S          67.0919   93.1988   15.1307 S.O2    1  UNL1        0.0054
     23 O          67.4096   93.1317   13.6663 O.2     1  UNL1       -0.1689
     24 O          66.7741   93.2660   16.5951 O.2     1  UNL1       -0.1689
     25 C          68.2943   94.0678   15.3518 C.3     1  UNL1        0.1556
     26 C          69.6526   92.1432   16.4476 C.3     1  UNL1        0.0019
     27 C          69.6128   93.4475   15.7078 C.3     1  UNL1        0.0257
@<TRIPOS>BOND
     1    26    27    1
     2    27    25    1
     3    25    22    1
     4    22    23    2
     5    22    24    2
     6    22     1    1
     7     1     2    2
     8     2     3    1
     9     3     4    2
    10     4     5    1
    11     5     6    2
    12     6    10    1
    13    10    11   ar
    14    11    12   ar
    15    12    13   ar
    16    13    14   ar
    17    14    16    1
    18    16    17   ar
    19    17    18   ar
    20    18    19   ar
    21    19    20   ar
    22    20    21   ar
    23    14    15   ar
    24     6     7    1
    25     7     8    2
    26     8     9    1
    27     9     1    1
    28     8     4    1
    29    15    10   ar
    30    21    16   ar
@<TRIPOS>MOLECULE
*****
 27 30 0 0 0
SMALL
GASTEIGER

@<TRIPOS>ATOM
      1 C          62.9799   83.5905   11.8304 C.2     1  UNL1        0.0919
      2 C          62.4234   84.4422   10.7283 C.2     1  UNL1        0.0183
      3 C          62.4107   85.9357   10.8682 C.2     1  UNL1        0.0511
      4 C          62.9545   86.5773   12.1102 C.2     1  UNL1        0.2322
      5 N          63.0741   88.0128   12.5284 N.2     1  UNL1       -0.0308
      6 C          63.7046   88.0482   13.8890 C.2     1  UNL1        0.3752
      7 N          63.9746   86.6346   14.3117 N.2     1  UNL1       -0.0347
      8 C          63.5110   85.7255   13.2123 C.2     1  UNL1        0.2191
      9 C          63.5237   84.2321   13.0724 C.3     1  UNL1        0.1226
     10 C          64.0112   89.2810   14.6868 C.ar    1  UNL1        0.0884
     11 C          62.9922   89.8294   15.6411 C.ar    1  UNL1        0.0077
     12 C          63.2987   91.0621   16.4389 C.ar    1  UNL1        0.0003
     13 C          64.6244   91.7463   16.2824 C.ar    1  UNL1        0.0000
     14 C          65.6434   91.1978   15.3281 C.ar    1  UNL1        0.0002
     15 C          65.3369   89.9652   14.5303 C.ar    1  UNL1        0.0077
     16 C          66.9691   91.8821   15.1716 C.ar    1  UNL1        0.0000
     17 C          67.4460   92.8423   16.2207 C.ar    1  UNL1        0.0000
     18 C          68.7716   93.5265   16.0642 C.ar    1  UNL1        0.0000
     19 C          69.6204   93.2505   14.8586 C.ar    1  UNL1        0.0000
     20 C          69.1435   92.2903   13.8095 C.ar    1  UNL1        0.0000
     21 C          67.8179   91.6061   13.9660 C.ar    1  UNL1        0.0000
     22 S          62.9926   82.0971   11.6906 S.O2    1  UNL1        0.0054
     23 O          63.8233   82.2205   10.4477 O.2     1  UNL1       -0.1689
     24 O          62.1619   81.9736   12.9334 O.2     1  UNL1       -0.1689
     25 C          63.0053   80.6036   11.5507 C.3     1  UNL1        0.1556
     26 C          62.7579   78.4873   10.0642 C.3     1  UNL1        0.0019
     27 C          62.8835   79.9764   10.1937 C.3     1  UNL1        0.0257
@<TRIPOS>BOND
     1    26    27    1
     2    27    25    1
     3    25    22    1
     4    22    23    2
     5    22    24    2
     6    22     1    1
     7     1     2    2
     8     2     3    1
     9     3     4    2
    10     4     5    1
    11     5     6    2
    12     6    10    1
    13    10    11   ar
    14    11    12   ar
    15    12    13   ar
    16    13    14   ar
    17    14    16    1
    18    16    17   ar
    19    17    18   ar
    20    18    19   ar
    21    19    20   ar
    22    20    21   ar
    23    14    15   ar
    24     6     7    1
    25     7     8    2
    26     8     9    1
    27     9     1    1
    28     8     4    1
    29    15    10   ar
    30    21    16   ar
