@<TRIPOS>MOLECULE
*****
 30 33 0 0 0
SMALL
GASTEIGER

@<TRIPOS>ATOM
      1 N          63.4047   89.0956   13.0108 N.3     1  UNL1       -0.1490
      2 C          62.5450   89.1530   11.7829 C.3     1  UNL1        0.1409
      3 C          62.1016   87.8837   11.1179 C.ar    1  UNL1        0.0770
      4 C          61.2575   87.6282    9.9046 C.ar    1  UNL1        0.1148
      5 N          61.1521   86.1436    9.7175 N.ar    1  UNL1       -0.2226
      6 C          61.9312   85.4817   10.8152 C.ar    1  UNL1        0.1796
      7 N          62.5180   86.5571   11.6807 N.ar    1  UNL1       -0.2923
      8 C          63.3777   86.4998   12.9085 C.3     1  UNL1        0.2364
      9 S          63.8210   87.7691   13.5736 S.O2    1  UNL1        0.0629
     10 O          64.4896   88.6885   14.5521 O.2     1  UNL1       -0.1555
     11 O          64.4696   86.7618   14.4762 O.2     1  UNL1       -0.1555
     12 C          63.5134   90.6132   15.1169 C.3     1  UNL1        0.0240
     13 C          63.8481   90.3650   13.6759 C.3     1  UNL1        0.1019
     14 C          64.6261   91.3861   12.9001 C.ar    1  UNL1       -0.0061
     15 C          64.2900   91.6516   11.4625 C.ar    1  UNL1       -0.0021
     16 C          65.0681   92.6727   10.6866 C.ar    1  UNL1        0.0111
     17 C          66.1821   93.4283   11.3483 C.ar    1  UNL1        0.0577
     18 CL         66.9602   94.4494   10.5725 Cl      1  UNL1       -0.0822
     19 C          66.5182   93.1628   12.7859 C.ar    1  UNL1        0.0111
     20 C          65.7402   92.1417   13.5618 C.ar    1  UNL1       -0.0021
     21 C          63.7941   85.1732   13.4713 C.3     1  UNL1        0.0827
     22 C          62.7699   84.2619   14.0801 C.3     1  UNL1        0.1364
     23 O          61.8794   84.7623   15.1786 O.3     1  UNL1       -0.3799
     24 H          62.0950   85.6877   15.3734 H       1  UNL1        0.2108
     25 C          62.6363   82.8504   13.5905 C.ar    1  UNL1        0.0043
     26 C          61.8596   81.8487   14.3926 C.ar    1  UNL1       -0.0020
     27 C          61.7260   80.4372   13.9030 C.ar    1  UNL1       -0.0002
     28 C          62.3690   80.0273   12.6113 C.ar    1  UNL1       -0.0000
     29 C          63.1457   81.0291   11.8092 C.ar    1  UNL1       -0.0002
     30 C          63.2793   82.4405   12.2988 C.ar    1  UNL1       -0.0020
@<TRIPOS>BOND
     1    13    12    1
     2    13    14    1
     3    14    15   ar
     4    15    16   ar
     5    16    17   ar
     6    17    18    1
     7    17    19   ar
     8    19    20   ar
     9    13     1    1
    10     1     2    1
    11     2     3    1
    12     3     4   ar
    13     4     5   ar
    14     5     6   ar
    15     6     7   ar
    16     7     8    1
    17     8    21    1
    18    21    22    1
    19    22    23    1
    20    22    25    1
    21    25    26   ar
    22    26    27   ar
    23    27    28   ar
    24    28    29   ar
    25    29    30   ar
    26     8     9    1
    27     9    10    2
    28     9    11    2
    29    20    14   ar
    30     9     1    1
    31     7     3   ar
    32    30    25   ar
    33    23    24    1
@<TRIPOS>MOLECULE
*****
 30 33 0 0 0
SMALL
GASTEIGER

@<TRIPOS>ATOM
      1 N          64.0858   89.6493   14.5336 N.3     1  UNL1       -0.1490
      2 C          64.4277   88.3017   15.0968 C.3     1  UNL1        0.1409
      3 C          64.1197   87.0609   14.3123 C.ar    1  UNL1        0.0770
      4 C          64.3391   85.6066   14.6072 C.ar    1  UNL1        0.1148
      5 N          63.8249   84.8146   13.4417 N.ar    1  UNL1       -0.2226
      6 C          63.2876   85.7794   12.4265 C.ar    1  UNL1        0.1796
      7 N          63.4698   87.1677   12.9646 N.ar    1  UNL1       -0.2923
      8 C          63.1280   88.5152   12.4014 C.3     1  UNL1        0.2364
      9 S          63.4360   89.7560   13.1860 S.O2    1  UNL1        0.0629
     10 O          63.5295   91.2092   13.5458 O.2     1  UNL1       -0.1555
     11 O          62.8186   90.3675   11.9633 O.2     1  UNL1       -0.1555
     12 C          63.3397   91.5084   16.1881 C.3     1  UNL1        0.0240
     13 C          64.3938   90.8902   15.3182 C.3     1  UNL1        0.1019
     14 C          65.7558   91.5127   15.2329 C.ar    1  UNL1       -0.0061
     15 C          66.6640   91.1758   14.0875 C.ar    1  UNL1       -0.0021
     16 C          68.0260   91.7984   14.0023 C.ar    1  UNL1        0.0111
     17 C          68.4799   92.7578   15.0622 C.ar    1  UNL1        0.0577
     18 CL         69.8419   93.3804   14.9770 Cl      1  UNL1       -0.0822
     19 C          67.5717   93.0946   16.2076 C.ar    1  UNL1        0.0111
     20 C          66.2096   92.4721   16.2929 C.ar    1  UNL1       -0.0021
     21 C          62.4781   88.6220   11.0537 C.3     1  UNL1        0.0827
     22 C          61.2951   87.7618   10.7212 C.3     1  UNL1        0.1364
     23 O          60.0865   87.7728   11.6095 O.3     1  UNL1       -0.3799
     24 H          60.2334   88.3846   12.3478 H       1  UNL1        0.2108
     25 C          61.3208   86.8906    9.5004 C.ar    1  UNL1        0.0043
     26 C          60.0848   86.7332    8.6652 C.ar    1  UNL1       -0.0020
     27 C          60.1104   85.8621    7.4444 C.ar    1  UNL1       -0.0002
     28 C          61.3720   85.1483    7.0587 C.ar    1  UNL1       -0.0000
     29 C          62.6081   85.3058    7.8939 C.ar    1  UNL1       -0.0002
     30 C          62.5825   86.1769    9.1147 C.ar    1  UNL1       -0.0020
@<TRIPOS>BOND
     1    13    12    1
     2    13    14    1
     3    14    15   ar
     4    15    16   ar
     5    16    17   ar
     6    17    18    1
     7    17    19   ar
     8    19    20   ar
     9    13     1    1
    10     1     2    1
    11     2     3    1
    12     3     4   ar
    13     4     5   ar
    14     5     6   ar
    15     6     7   ar
    16     7     8    1
    17     8    21    1
    18    21    22    1
    19    22    23    1
    20    22    25    1
    21    25    26   ar
    22    26    27   ar
    23    27    28   ar
    24    28    29   ar
    25    29    30   ar
    26     8     9    1
    27     9    10    2
    28     9    11    2
    29    20    14   ar
    30     9     1    1
    31     7     3   ar
    32    30    25   ar
    33    23    24    1
@<TRIPOS>MOLECULE
*****
 30 33 0 0 0
SMALL
GASTEIGER

@<TRIPOS>ATOM
      1 N          61.8634   87.7052   11.2979 N.3     1  UNL1       -0.1490
      2 C          62.3114   86.5553   12.1507 C.3     1  UNL1        0.1409
      3 C          63.3252   86.7755   13.2341 C.ar    1  UNL1        0.0770
      4 C          63.9530   85.8417   14.2260 C.ar    1  UNL1        0.1148
      5 N          64.9067   86.6346   15.0696 N.ar    1  UNL1       -0.2226
      6 C          64.8684   88.0584   14.5992 C.ar    1  UNL1        0.1796
      7 N          63.8909   88.1455   13.4647 N.ar    1  UNL1       -0.2923
      8 C          63.4429   89.2953   12.6119 C.3     1  UNL1        0.2364
      9 S          62.4291   89.0751   11.5285 S.O2    1  UNL1        0.0629
     10 O          61.4997   89.3658   10.3876 O.2     1  UNL1       -0.1555
     11 O          62.6720   90.5460   11.3629 O.2     1  UNL1       -0.1555
     12 C          59.5029   88.1398   10.3031 C.3     1  UNL1        0.0240
     13 C          60.8496   87.4850   10.2144 C.3     1  UNL1        0.1019
     14 C          61.1824   86.6101    9.0424 C.ar    1  UNL1       -0.0061
     15 C          60.1284   86.2851    8.0258 C.ar    1  UNL1       -0.0021
     16 C          60.4614   85.4101    6.8537 C.ar    1  UNL1        0.0111
     17 C          61.8482   84.8603    6.6983 C.ar    1  UNL1        0.0577
     18 CL         62.1812   83.9854    5.5263 Cl      1  UNL1       -0.0822
     19 C          62.9023   85.1853    7.7149 C.ar    1  UNL1        0.0111
     20 C          62.5694   86.0602    8.8870 C.ar    1  UNL1       -0.0021
     21 C          64.0086   90.6652   12.8425 C.3     1  UNL1        0.0827
     22 C          64.2770   91.1404   14.2397 C.3     1  UNL1        0.1364
     23 O          63.1947   91.0722   15.2760 O.3     1  UNL1       -0.3799
     24 H          62.3915   90.6990   14.8805 H       1  UNL1        0.2108
     25 C          65.6278   91.6837   14.6005 C.ar    1  UNL1        0.0043
     26 C          66.7548   91.6077   13.6135 C.ar    1  UNL1       -0.0020
     27 C          68.1056   92.1510   13.9743 C.ar    1  UNL1       -0.0002
     28 C          68.3295   92.7704   15.3220 C.ar    1  UNL1       -0.0000
     29 C          67.2024   92.8464   16.3089 C.ar    1  UNL1       -0.0002
     30 C          65.8517   92.3031   15.9482 C.ar    1  UNL1       -0.0020
@<TRIPOS>BOND
     1    13    12    1
     2    13    14    1
     3    14    15   ar
     4    15    16   ar
     5    16    17   ar
     6    17    18    1
     7    17    19   ar
     8    19    20   ar
     9    13     1    1
    10     1     2    1
    11     2     3    1
    12     3     4   ar
    13     4     5   ar
    14     5     6   ar
    15     6     7   ar
    16     7     8    1
    17     8    21    1
    18    21    22    1
    19    22    23    1
    20    22    25    1
    21    25    26   ar
    22    26    27   ar
    23    27    28   ar
    24    28    29   ar
    25    29    30   ar
    26     8     9    1
    27     9    10    2
    28     9    11    2
    29    20    14   ar
    30     9     1    1
    31     7     3   ar
    32    30    25   ar
    33    23    24    1
@<TRIPOS>MOLECULE
*****
 30 33 0 0 0
SMALL
GASTEIGER

@<TRIPOS>ATOM
      1 N          62.8897   85.2303   13.1516 N.3     1  UNL1       -0.1490
      2 C          62.1748   85.6300   11.8949 C.3     1  UNL1        0.1409
      3 C          62.2534   87.0457   11.4053 C.ar    1  UNL1        0.0770
      4 C          61.6588   87.7285   10.2094 C.ar    1  UNL1        0.1148
      5 N          62.0848   89.1664   10.2373 N.ar    1  UNL1       -0.2226
      6 C          62.9426   89.3723   11.4504 C.ar    1  UNL1        0.1796
      7 N          63.0468   88.0616   12.1723 N.ar    1  UNL1       -0.2923
      8 C          63.7617   87.6619   13.4290 C.3     1  UNL1        0.2364
      9 S          63.6831   86.2462   13.9186 S.O2    1  UNL1        0.0629
     10 O          63.9071   85.0377   14.7783 O.2     1  UNL1       -0.1555
     11 O          64.5543   86.8424   14.9842 O.2     1  UNL1       -0.1555
     12 C          62.6504   83.5356   15.1063 C.3     1  UNL1        0.0240
     13 C          62.8111   83.8146   13.6413 C.3     1  UNL1        0.1019
     14 C          62.8933   82.6780   12.6659 C.ar    1  UNL1       -0.0061
     15 C          63.4849   82.8987   11.3053 C.ar    1  UNL1       -0.0021
     16 C          63.5670   81.7620   10.3299 C.ar    1  UNL1        0.0111
     17 C          63.0576   80.4048   10.7151 C.ar    1  UNL1        0.0577
     18 CL         63.1398   79.2681    9.7399 Cl      1  UNL1       -0.0822
     19 C          62.4660   80.1842   12.0759 C.ar    1  UNL1        0.0111
     20 C          62.3838   81.3208   13.0512 C.ar    1  UNL1       -0.0021
     21 C          64.5551   88.6778   14.1960 C.3     1  UNL1        0.0827
     22 C          64.0025   90.0559   14.4091 C.3     1  UNL1        0.1364
     23 O          62.5750   90.2341   14.8339 O.3     1  UNL1       -0.3799
     24 H          62.1539   89.3651   14.9251 H       1  UNL1        0.2108
     25 C          64.8774   91.2558   14.1972 C.ar    1  UNL1        0.0043
     26 C          65.6043   91.8682   15.3577 C.ar    1  UNL1       -0.0020
     27 C          66.4793   93.0680   15.1460 C.ar    1  UNL1       -0.0002
     28 C          66.6274   93.6555   13.7738 C.ar    1  UNL1       -0.0000
     29 C          65.9004   93.0431   12.6133 C.ar    1  UNL1       -0.0002
     30 C          65.0255   91.8433   12.8251 C.ar    1  UNL1       -0.0020
@<TRIPOS>BOND
     1    13    12    1
     2    13    14    1
     3    14    15   ar
     4    15    16   ar
     5    16    17   ar
     6    17    18    1
     7    17    19   ar
     8    19    20   ar
     9    13     1    1
    10     1     2    1
    11     2     3    1
    12     3     4   ar
    13     4     5   ar
    14     5     6   ar
    15     6     7   ar
    16     7     8    1
    17     8    21    1
    18    21    22    1
    19    22    23    1
    20    22    25    1
    21    25    26   ar
    22    26    27   ar
    23    27    28   ar
    24    28    29   ar
    25    29    30   ar
    26     8     9    1
    27     9    10    2
    28     9    11    2
    29    20    14   ar
    30     9     1    1
    31     7     3   ar
    32    30    25   ar
    33    23    24    1
@<TRIPOS>MOLECULE
*****
 30 33 0 0 0
SMALL
GASTEIGER

@<TRIPOS>ATOM
      1 N          63.4862   86.8362   13.1667 N.3     1  UNL1       -0.1490
      2 C          62.7063   86.7799   11.8865 C.3     1  UNL1        0.1409
      3 C          62.2906   88.0499   11.2052 C.ar    1  UNL1        0.0770
      4 C          61.5215   88.3065    9.9432 C.ar    1  UNL1        0.1148
      5 N          61.4103   89.7913    9.7620 N.ar    1  UNL1       -0.2226
      6 C          62.1106   90.4524   10.9120 C.ar    1  UNL1        0.1796
      7 N          62.6546   89.3761   11.8040 N.ar    1  UNL1       -0.2923
      8 C          63.4345   89.4323   13.0841 C.3     1  UNL1        0.2364
      9 S          63.8502   88.1623   13.7654 S.O2    1  UNL1        0.0629
     10 O          64.4669   87.2419   14.7767 O.2     1  UNL1       -0.1555
     11 O          64.4285   89.1689   14.7154 O.2     1  UNL1       -0.1555
     12 C          64.5888   85.6199   15.1805 C.3     1  UNL1        0.0240
     13 C          63.9020   85.5661   13.8480 C.3     1  UNL1        0.1019
     14 C          63.6310   84.2422   13.1969 C.ar    1  UNL1       -0.0061
     15 C          64.4268   83.8194   11.9977 C.ar    1  UNL1       -0.0021
     16 C          64.1557   82.4955   11.3466 C.ar    1  UNL1        0.0111
     17 C          63.0891   81.5945   11.8946 C.ar    1  UNL1        0.0577
     18 CL         62.8180   80.2707   11.2436 Cl      1  UNL1       -0.0822
     19 C          62.2934   82.0174   13.0939 C.ar    1  UNL1        0.0111
     20 C          62.5643   83.3412   13.7450 C.ar    1  UNL1       -0.0021
     21 C          63.7986   90.7586   13.6829 C.3     1  UNL1        0.0827
     22 C          64.9456   91.5454   13.1216 C.3     1  UNL1        0.1364
     23 O          64.9439   91.9465   11.6762 O.3     1  UNL1       -0.3799
     24 H          64.1354   91.6203   11.2511 H       1  UNL1        0.2108
     25 C          66.0944   91.9310   14.0057 C.ar    1  UNL1        0.0043
     26 C          65.8406   92.3623   15.4198 C.ar    1  UNL1       -0.0020
     27 C          66.9893   92.7479   16.3039 C.ar    1  UNL1       -0.0002
     28 C          68.3919   92.7023   15.7740 C.ar    1  UNL1       -0.0000
     29 C          68.6456   92.2710   14.3599 C.ar    1  UNL1       -0.0002
     30 C          67.4970   91.8854   13.4758 C.ar    1  UNL1       -0.0020
@<TRIPOS>BOND
     1    13    12    1
     2    13    14    1
     3    14    15   ar
     4    15    16   ar
     5    16    17   ar
     6    17    18    1
     7    17    19   ar
     8    19    20   ar
     9    13     1    1
    10     1     2    1
    11     2     3    1
    12     3     4   ar
    13     4     5   ar
    14     5     6   ar
    15     6     7   ar
    16     7     8    1
    17     8    21    1
    18    21    22    1
    19    22    23    1
    20    22    25    1
    21    25    26   ar
    22    26    27   ar
    23    27    28   ar
    24    28    29   ar
    25    29    30   ar
    26     8     9    1
    27     9    10    2
    28     9    11    2
    29    20    14   ar
    30     9     1    1
    31     7     3   ar
    32    30    25   ar
    33    23    24    1
@<TRIPOS>MOLECULE
*****
 30 33 0 0 0
SMALL
GASTEIGER

@<TRIPOS>ATOM
      1 N          62.4825   86.2873   11.7945 N.3     1  UNL1       -0.1490
      2 C          61.5754   85.9704   10.6425 C.3     1  UNL1        0.1409
      3 C          60.9146   87.0809    9.8808 C.ar    1  UNL1        0.0770
      4 C          59.9776   87.0756    8.7095 C.ar    1  UNL1        0.1148
      5 N          59.6448   88.4996    8.3758 N.ar    1  UNL1       -0.2226
      6 C          60.3761   89.3850    9.3409 C.ar    1  UNL1        0.1796
      7 N          61.1609   88.5082   10.2710 N.ar    1  UNL1       -0.2923
      8 C          62.0680   88.8250   11.4229 C.3     1  UNL1        0.2364
      9 S          62.7287   87.7145   12.1846 S.O2    1  UNL1        0.0629
     10 O          63.5774   87.0154   13.2049 O.2     1  UNL1       -0.1555
     11 O          63.2698   88.8989   12.9292 O.2     1  UNL1       -0.1555
     12 C          63.8066   85.4605   13.8713 C.3     1  UNL1        0.0240
     13 C          63.1433   85.1767   12.5562 C.3     1  UNL1        0.1019
     14 C          63.1407   83.7826   12.0029 C.ar    1  UNL1       -0.0061
     15 C          63.8565   83.4840   10.7190 C.ar    1  UNL1       -0.0021
     16 C          63.8539   82.0897   10.1656 C.ar    1  UNL1        0.0111
     17 C          63.1356   80.9942   10.8961 C.ar    1  UNL1        0.0577
     18 CL         63.1329   79.6000   10.3428 Cl      1  UNL1       -0.0822
     19 C          62.4197   81.2928   12.1801 C.ar    1  UNL1        0.0111
     20 C          62.4223   82.6870   12.7335 C.ar    1  UNL1       -0.0021
     21 C          62.3143   90.2522   11.8131 C.3     1  UNL1        0.0827
     22 C          63.2040   91.1173   10.9705 C.3     1  UNL1        0.1364
     23 O          62.8500   91.3865    9.5380 O.3     1  UNL1       -0.3799
     24 H          62.0226   90.9303    9.3182 H       1  UNL1        0.2108
     25 C          64.4478   91.7130   11.5605 C.ar    1  UNL1        0.0043
     26 C          64.7215   91.5757   13.0289 C.ar    1  UNL1       -0.0020
     27 C          65.9653   92.1714   13.6190 C.ar    1  UNL1       -0.0002
     28 C          66.9354   92.9045   12.7406 C.ar    1  UNL1       -0.0000
     29 C          66.6616   93.0418   11.2722 C.ar    1  UNL1       -0.0002
     30 C          65.4179   92.4461   10.6822 C.ar    1  UNL1       -0.0020
@<TRIPOS>BOND
     1    13    12    1
     2    13    14    1
     3    14    15   ar
     4    15    16   ar
     5    16    17   ar
     6    17    18    1
     7    17    19   ar
     8    19    20   ar
     9    13     1    1
    10     1     2    1
    11     2     3    1
    12     3     4   ar
    13     4     5   ar
    14     5     6   ar
    15     6     7   ar
    16     7     8    1
    17     8    21    1
    18    21    22    1
    19    22    23    1
    20    22    25    1
    21    25    26   ar
    22    26    27   ar
    23    27    28   ar
    24    28    29   ar
    25    29    30   ar
    26     8     9    1
    27     9    10    2
    28     9    11    2
    29    20    14   ar
    30     9     1    1
    31     7     3   ar
    32    30    25   ar
    33    23    24    1
@<TRIPOS>MOLECULE
*****
 30 33 0 0 0
SMALL
GASTEIGER

@<TRIPOS>ATOM
      1 N          62.6956   89.1686   11.5961 N.3     1  UNL1       -0.1490
      2 C          63.1287   88.9511   13.0158 C.3     1  UNL1        0.1409
      3 C          64.0030   89.9622   13.6964 C.ar    1  UNL1        0.0770
      4 C          64.5845   90.0182   15.0780 C.ar    1  UNL1        0.1148
      5 N          65.3851   91.2815   15.1929 N.ar    1  UNL1       -0.2226
      6 C          65.2984   92.0061   13.8824 C.ar    1  UNL1        0.1796
      7 N          64.4442   91.1907   12.9575 N.ar    1  UNL1       -0.2923
      8 C          64.0111   91.4082   11.5379 C.3     1  UNL1        0.2364
      9 S          63.1368   90.3971   10.8573 S.O2    1  UNL1        0.0629
     10 O          62.3169   89.7325    9.7914 O.2     1  UNL1       -0.1555
     11 O          63.2932   91.3948    9.7482 O.2     1  UNL1       -0.1555
     12 C          60.4434   88.5407   10.4631 C.3     1  UNL1        0.0240
     13 C          61.8213   88.1574   10.9154 C.3     1  UNL1        0.1019
     14 C          62.3249   86.7631   10.6871 C.ar    1  UNL1       -0.0061
     15 C          62.5785   85.8566   11.8550 C.ar    1  UNL1       -0.0021
     16 C          63.0821   84.4622   11.6265 C.ar    1  UNL1        0.0111
     17 C          63.3320   83.9744   10.2304 C.ar    1  UNL1        0.0577
     18 CL         63.8356   82.5800   10.0019 Cl      1  UNL1       -0.0822
     19 C          63.0784   84.8809    9.0624 C.ar    1  UNL1        0.0111
     20 C          62.5748   86.2753    9.2908 C.ar    1  UNL1       -0.0021
     21 C          64.4523   92.6367   10.7990 C.3     1  UNL1        0.0827
     22 C          65.9144   92.9277   10.6332 C.3     1  UNL1        0.1364
     23 O          66.9339   91.9126   11.0578 O.3     1  UNL1       -0.3799
     24 H          66.4832   91.1317   11.4154 H       1  UNL1        0.2108
     25 C          66.3570   94.2337   10.0429 C.ar    1  UNL1        0.0043
     26 C          65.8332   95.5242   10.5998 C.ar    1  UNL1       -0.0020
     27 C          66.2757   96.8303   10.0096 C.ar    1  UNL1       -0.0002
     28 C          67.2420   96.8458    8.8624 C.ar    1  UNL1       -0.0000
     29 C          67.7659   95.5552    8.3056 C.ar    1  UNL1       -0.0002
     30 C          67.3234   94.2493    8.8958 C.ar    1  UNL1       -0.0020
@<TRIPOS>BOND
     1    13    12    1
     2    13    14    1
     3    14    15   ar
     4    15    16   ar
     5    16    17   ar
     6    17    18    1
     7    17    19   ar
     8    19    20   ar
     9    13     1    1
    10     1     2    1
    11     2     3    1
    12     3     4   ar
    13     4     5   ar
    14     5     6   ar
    15     6     7   ar
    16     7     8    1
    17     8    21    1
    18    21    22    1
    19    22    23    1
    20    22    25    1
    21    25    26   ar
    22    26    27   ar
    23    27    28   ar
    24    28    29   ar
    25    29    30   ar
    26     8     9    1
    27     9    10    2
    28     9    11    2
    29    20    14   ar
    30     9     1    1
    31     7     3   ar
    32    30    25   ar
    33    23    24    1
@<TRIPOS>MOLECULE
*****
 30 33 0 0 0
SMALL
GASTEIGER

@<TRIPOS>ATOM
      1 N          63.5408   89.3297   14.1175 N.3     1  UNL1       -0.1490
      2 C          62.9003   89.7711   12.8348 C.3     1  UNL1        0.1409
      3 C          62.5951   88.7657   11.7642 C.ar    1  UNL1        0.0770
      4 C          61.9722   88.9031   10.4066 C.ar    1  UNL1        0.1148
      5 N          61.9225   87.5414    9.7796 N.ar    1  UNL1       -0.2226
      6 C          62.5146   86.5624   10.7496 C.ar    1  UNL1        0.1796
      7 N          62.9303   87.3191   11.9763 N.ar    1  UNL1       -0.2923
      8 C          63.5707   86.8778   13.2589 C.3     1  UNL1        0.2364
      9 S          63.8759   87.8831   14.3294 S.O2    1  UNL1        0.0629
     10 O          64.3554   88.4549   15.6306 O.2     1  UNL1       -0.1555
     11 O          64.3776   86.6351   14.9934 O.2     1  UNL1       -0.1555
     12 C          62.8665   90.5673   16.3001 C.3     1  UNL1        0.0240
     13 C          63.8460   90.3350   15.1881 C.3     1  UNL1        0.1019
     14 C          65.1308   91.1081   15.1467 C.ar    1  UNL1       -0.0061
     15 C          65.4823   92.0392   16.2689 C.ar    1  UNL1       -0.0021
     16 C          66.7672   92.8123   16.2274 C.ar    1  UNL1        0.0111
     17 C          67.7004   92.6542   15.0639 C.ar    1  UNL1        0.0577
     18 CL         68.9852   93.4272   15.0223 Cl      1  UNL1       -0.0822
     19 C          67.3488   91.7230   13.9416 C.ar    1  UNL1        0.0111
     20 C          66.0640   90.9499   13.9830 C.ar    1  UNL1       -0.0021
     21 C          63.9059   85.4312   13.4709 C.3     1  UNL1        0.0827
     22 C          62.8556   84.4831   13.9690 C.3     1  UNL1        0.1364
     23 O          61.8947   84.9208   15.0344 O.3     1  UNL1       -0.3799
     24 H          62.0888   85.8366   15.2885 H       1  UNL1        0.2108
     25 C          62.7662   83.0975   13.4015 C.ar    1  UNL1        0.0043
     26 C          62.2853   81.9652   14.2598 C.ar    1  UNL1       -0.0020
     27 C          62.1959   80.5795   13.6924 C.ar    1  UNL1       -0.0002
     28 C          62.5874   80.3261   12.2668 C.ar    1  UNL1       -0.0000
     29 C          63.0683   81.4585   11.4085 C.ar    1  UNL1       -0.0002
     30 C          63.1577   82.8441   11.9758 C.ar    1  UNL1       -0.0020
@<TRIPOS>BOND
     1    13    12    1
     2    13    14    1
     3    14    15   ar
     4    15    16   ar
     5    16    17   ar
     6    17    18    1
     7    17    19   ar
     8    19    20   ar
     9    13     1    1
    10     1     2    1
    11     2     3    1
    12     3     4   ar
    13     4     5   ar
    14     5     6   ar
    15     6     7   ar
    16     7     8    1
    17     8    21    1
    18    21    22    1
    19    22    23    1
    20    22    25    1
    21    25    26   ar
    22    26    27   ar
    23    27    28   ar
    24    28    29   ar
    25    29    30   ar
    26     8     9    1
    27     9    10    2
    28     9    11    2
    29    20    14   ar
    30     9     1    1
    31     7     3   ar
    32    30    25   ar
    33    23    24    1
@<TRIPOS>MOLECULE
*****
 30 33 0 0 0
SMALL
GASTEIGER

@<TRIPOS>ATOM
      1 N          61.9868   86.6160   11.6590 N.3     1  UNL1       -0.1490
      2 C          61.9860   85.2332   12.2406 C.3     1  UNL1        0.1409
      3 C          62.8560   84.9155   13.4205 C.ar    1  UNL1        0.0770
      4 C          63.0642   83.6527   14.2028 C.ar    1  UNL1        0.1148
      5 N          64.0636   83.9371   15.2845 N.ar    1  UNL1       -0.2226
      6 C          64.4731   85.3757   15.1708 C.ar    1  UNL1        0.1796
      7 N          63.7267   85.9803   14.0187 N.ar    1  UNL1       -0.2923
      8 C          63.7275   87.3630   13.4371 C.3     1  UNL1        0.2364
      9 S          62.8575   87.6807   12.2573 S.O2    1  UNL1        0.0629
     10 O          62.2120   88.4627   11.1519 O.2     1  UNL1       -0.1555
     11 O          63.5040   89.0172   12.4716 O.2     1  UNL1       -0.1555
     12 C          60.0236   87.9531   10.6062 C.3     1  UNL1        0.0240
     13 C          61.1168   86.9338   10.4791 C.3     1  UNL1        0.1019
     14 C          61.3399   86.2323    9.1721 C.ar    1  UNL1       -0.0061
     15 C          60.2209   86.1223    8.1794 C.ar    1  UNL1       -0.0021
     16 C          60.4441   85.4209    6.8723 C.ar    1  UNL1        0.0111
     17 C          61.7862   84.8295    6.5582 C.ar    1  UNL1        0.0577
     18 CL         62.0095   84.1280    5.2513 Cl      1  UNL1       -0.0822
     19 C          62.9053   84.9395    7.5510 C.ar    1  UNL1        0.0111
     20 C          62.6822   85.6409    8.8580 C.ar    1  UNL1       -0.0021
     21 C          64.5982   88.4278   14.0354 C.3     1  UNL1        0.0827
     22 C          63.9792   89.5648   14.7932 C.3     1  UNL1        0.1364
     23 O          62.5146   89.5414   15.1164 O.3     1  UNL1       -0.3799
     24 H          62.1192   88.7278   14.7663 H       1  UNL1        0.2108
     25 C          64.8248   90.7250   15.2277 C.ar    1  UNL1        0.0043
     26 C          66.1002   91.0366   14.5023 C.ar    1  UNL1       -0.0020
     27 C          66.9459   92.1969   14.9367 C.ar    1  UNL1       -0.0002
     28 C          66.5161   93.0455   16.0965 C.ar    1  UNL1       -0.0000
     29 C          65.2406   92.7338   16.8219 C.ar    1  UNL1       -0.0002
     30 C          64.3950   91.5737   16.3874 C.ar    1  UNL1       -0.0020
@<TRIPOS>BOND
     1    13    12    1
     2    13    14    1
     3    14    15   ar
     4    15    16   ar
     5    16    17   ar
     6    17    18    1
     7    17    19   ar
     8    19    20   ar
     9    13     1    1
    10     1     2    1
    11     2     3    1
    12     3     4   ar
    13     4     5   ar
    14     5     6   ar
    15     6     7   ar
    16     7     8    1
    17     8    21    1
    18    21    22    1
    19    22    23    1
    20    22    25    1
    21    25    26   ar
    22    26    27   ar
    23    27    28   ar
    24    28    29   ar
    25    29    30   ar
    26     8     9    1
    27     9    10    2
    28     9    11    2
    29    20    14   ar
    30     9     1    1
    31     7     3   ar
    32    30    25   ar
    33    23    24    1
