@<TRIPOS>MOLECULE
*****
 39 45 0 0 0
SMALL
GASTEIGER

@<TRIPOS>ATOM
      1 C          59.2332   90.5163    5.5225 C.2     1  UNL1        0.1040
      2 N          57.8611   91.1178    5.4477 N.2     1  UNL1       -0.1483
      3 N          57.8911   92.2151    4.4255 N.2     1  UNL1       -0.1520
      4 C          59.2818   92.2918    3.8685 C.2     1  UNL1        0.0860
      5 C          59.8999   93.1821    2.8316 C.3     1  UNL1        0.0697
      6 C          61.3476   93.0224    2.4726 C.2     1  UNL1       -0.0378
      7 C          62.1770   91.9725    3.1506 C.2     1  UNL1       -0.0080
      8 C          61.5589   91.0822    4.1875 C.2     1  UNL1        0.0022
      9 C          60.1112   91.2419    4.5465 C.2     1  UNL1        0.0350
     10 C          61.9658   93.9128    1.4356 C.3     1  UNL1        0.0315
     11 C          62.7546   95.1375    1.0784 C.3     1  UNL1        0.0179
     12 C          62.2478   94.2300   -0.0031 C.3     1  UNL1        0.0927
     13 C          61.5332   93.0388   -0.5692 C.2     1  UNL1        0.2293
     14 O          60.8231   91.9793    0.2203 O.2     1  UNL1       -0.2744
     15 N          61.6535   93.0931   -2.0634 N.am    1  UNL1       -0.2839
     16 C          62.4423   94.3179   -2.4207 C.ar    1  UNL1        0.0467
     17 C          62.8736   94.8842   -3.7410 C.ar    1  UNL1        0.0144
     18 C          63.6722   96.1530   -3.7880 C.ar    1  UNL1        0.0013
     19 C          64.0395   96.8556   -2.5146 C.ar    1  UNL1       -0.0002
     20 C          63.6082   96.2894   -1.1943 C.ar    1  UNL1       -0.0026
     21 C          62.8096   95.0205   -1.1473 C.ar    1  UNL1       -0.0008
     22 H          61.2802   92.4397   -2.6981 H       1  UNL1        0.1549
     23 C          59.9966   89.6551    7.8518 C.2     1  UNL1        0.0016
     24 C          59.6535   89.3873    6.4163 C.2     1  UNL1        0.0209
     25 C          61.2574   86.2683   10.5331 C.ar    1  UNL1       -0.0061
     26 C          60.7847   87.5609   11.1295 C.ar    1  UNL1       -0.0029
     27 C          60.3644   88.6899   10.2357 C.ar    1  UNL1       -0.0003
     28 C          60.4169   88.5262    8.7455 C.ar    1  UNL1        0.0000
     29 C          60.8896   87.2335    8.1492 C.ar    1  UNL1       -0.0003
     30 C          61.3098   86.1046    9.0430 C.ar    1  UNL1       -0.0029
     31 C          61.6776   85.1392   11.4269 C.3     1  UNL1        0.0993
     32 C          64.4218   88.4561   14.3368 C.3     1  UNL1        0.0335
     33 C          63.9837   87.0554   14.0269 C.3     1  UNL1        0.1312
     34 C          63.0497   86.7977   12.8819 C.3     1  UNL1        0.1023
     35 N          62.6116   85.3970   12.5720 N.3     1  UNL1       -0.2648
     36 C          63.1074   84.2539   13.4072 C.3     1  UNL1        0.1023
     37 C          64.0414   84.5116   14.5524 C.3     1  UNL1        0.1312
     38 C          64.5372   83.3686   15.3876 C.3     1  UNL1        0.0335
     39 O          64.4796   85.9123   14.8623 O.3     1  UNL1       -0.3559
@<TRIPOS>BOND
     1    33    32    1
     2    33    34    1
     3    34    35    1
     4    35    31    1
     5    31    25    1
     6    25    26   ar
     7    26    27   ar
     8    27    28   ar
     9    28    23    1
    10    23    24    2
    11    24     1    1
    12     1     2    2
    13     2     3    1
    14     3     4    2
    15     4     5    1
    16     5     6    1
    17    10     6    1
    18    10    11    1
    19    12    11    1
    20    12    13    1
    21    13    14    2
    22    13    15   am
    23    15    16    1
    24    16    17   ar
    25    17    18   ar
    26    18    19   ar
    27    19    20   ar
    28    20    21   ar
    29     6     7    2
    30     7     8    1
    31     8     9    2
    32    28    29   ar
    33    29    30   ar
    34    35    36    1
    35    36    37    1
    36    37    38    1
    37    37    39    1
    38    39    33    1
    39    30    25   ar
    40     9     1    1
    41     9     4    1
    42    12    10    1
    43    21    16   ar
    44    21    12    1
    45    15    22    1
@<TRIPOS>MOLECULE
*****
 39 45 0 0 0
SMALL
GASTEIGER

@<TRIPOS>ATOM
      1 C          59.2609   90.5472    5.5400 C.2     1  UNL1        0.1040
      2 N          57.8879   91.1460    5.4592 N.2     1  UNL1       -0.1483
      3 N          57.9182   92.2380    4.4314 N.2     1  UNL1       -0.1520
      4 C          59.3099   92.3142    3.8769 C.2     1  UNL1        0.0860
      5 C          59.9287   93.2001    2.8367 C.3     1  UNL1        0.0697
      6 C          61.3774   93.0411    2.4816 C.2     1  UNL1       -0.0378
      7 C          62.2072   91.9961    3.1668 C.2     1  UNL1       -0.0080
      8 C          61.5884   91.1102    4.2070 C.2     1  UNL1        0.0022
      9 C          60.1397   91.2692    4.5621 C.2     1  UNL1        0.0350
     10 C          61.9963   93.9270    1.4413 C.3     1  UNL1        0.0315
     11 C          62.7912   95.1465    1.0797 C.3     1  UNL1        0.0179
     12 C          62.2733   94.2419    0.0011 C.3     1  UNL1        0.0927
     13 C          61.5484   93.0551   -0.5611 C.2     1  UNL1        0.2293
     14 O          60.8354   92.0005    0.2322 O.2     1  UNL1       -0.2744
     15 N          61.6618   93.1082   -2.0558 N.am    1  UNL1       -0.2839
     16 C          62.4567   94.3277   -2.4174 C.ar    1  UNL1        0.0467
     17 C          62.8853   94.8907   -3.7401 C.ar    1  UNL1        0.0144
     18 C          63.6917   96.1544   -3.7914 C.ar    1  UNL1        0.0013
     19 C          64.0697   96.8551   -2.5201 C.ar    1  UNL1       -0.0002
     20 C          63.6411   96.2921   -1.1975 C.ar    1  UNL1       -0.0026
     21 C          62.8347   95.0284   -1.1462 C.ar    1  UNL1       -0.0008
     22 H          61.2813   92.4569   -2.6885 H       1  UNL1        0.1549
     23 C          60.0496   89.7039    7.8674 C.2     1  UNL1        0.0016
     24 C          59.6812   89.4237    6.4406 C.2     1  UNL1        0.0209
     25 C          61.3105   86.3332   10.5690 C.ar    1  UNL1       -0.0061
     26 C          60.8511   87.6343   11.1574 C.ar    1  UNL1       -0.0029
     27 C          60.4308   88.7579   10.2569 C.ar    1  UNL1       -0.0003
     28 C          60.4699   88.5804    8.7679 C.ar    1  UNL1        0.0000
     29 C          60.9293   87.2792    8.1795 C.ar    1  UNL1       -0.0003
     30 C          61.3495   86.1557    9.0801 C.ar    1  UNL1       -0.0029
     31 C          61.7308   85.2096   11.4696 C.3     1  UNL1        0.0993
     32 C          64.6636   83.4538   15.3831 C.3     1  UNL1        0.0335
     33 C          64.1315   84.5962   14.5696 C.3     1  UNL1        0.1312
     34 C          63.1972   84.3317   13.4263 C.3     1  UNL1        0.1023
     35 N          62.6651   85.4741   12.6128 N.3     1  UNL1       -0.2648
     36 C          63.0674   86.8810   12.9425 C.3     1  UNL1        0.1023
     37 C          64.0018   87.1456   14.0858 C.3     1  UNL1        0.1312
     38 C          64.4041   88.5525   14.4155 C.3     1  UNL1        0.0335
     39 O          64.5338   86.0032   14.8993 O.3     1  UNL1       -0.3559
@<TRIPOS>BOND
     1    33    32    1
     2    33    34    1
     3    34    35    1
     4    35    31    1
     5    31    25    1
     6    25    26   ar
     7    26    27   ar
     8    27    28   ar
     9    28    23    1
    10    23    24    2
    11    24     1    1
    12     1     2    2
    13     2     3    1
    14     3     4    2
    15     4     5    1
    16     5     6    1
    17    10     6    1
    18    10    11    1
    19    12    11    1
    20    12    13    1
    21    13    14    2
    22    13    15   am
    23    15    16    1
    24    16    17   ar
    25    17    18   ar
    26    18    19   ar
    27    19    20   ar
    28    20    21   ar
    29     6     7    2
    30     7     8    1
    31     8     9    2
    32    28    29   ar
    33    29    30   ar
    34    35    36    1
    35    36    37    1
    36    37    38    1
    37    37    39    1
    38    39    33    1
    39    30    25   ar
    40     9     1    1
    41     9     4    1
    42    12    10    1
    43    21    16   ar
    44    21    12    1
    45    15    22    1
@<TRIPOS>MOLECULE
*****
 39 45 0 0 0
SMALL
GASTEIGER

@<TRIPOS>ATOM
      1 C          60.2554   91.5675    4.4267 C.2     1  UNL1        0.1040
      2 N          58.9037   92.1674    4.1753 N.2     1  UNL1       -0.1483
      3 N          59.0128   93.0737    2.9852 N.2     1  UNL1       -0.1520
      4 C          60.4320   93.0341    2.5010 C.2     1  UNL1        0.0860
      5 C          61.1242   93.7254    1.3639 C.3     1  UNL1        0.0697
      6 C          62.5843   93.4857    1.1177 C.2     1  UNL1       -0.0378
      7 C          63.3522   92.5548    2.0087 C.2     1  UNL1       -0.0080
      8 C          62.6601   91.8635    3.1457 C.2     1  UNL1        0.0022
      9 C          61.1999   92.1032    3.3919 C.2     1  UNL1        0.0350
     10 C          63.2766   94.1770   -0.0194 C.3     1  UNL1        0.0315
     11 C          64.2747   95.1810   -0.5150 C.3     1  UNL1        0.0179
     12 C          63.4774   94.3703   -1.4933 C.3     1  UNL1        0.0927
     13 C          62.4675   93.3486   -1.9244 C.2     1  UNL1        0.2293
     14 O          61.6246   92.5038   -1.0156 O.2     1  UNL1       -0.2744
     15 N          62.4484   93.3198   -3.4240 N.am    1  UNL1       -0.2839
     16 C          63.4466   94.3238   -3.9197 C.ar    1  UNL1        0.0467
     17 C          63.8585   94.7308   -5.3034 C.ar    1  UNL1        0.0144
     18 C          64.9065   95.7869   -5.4937 C.ar    1  UNL1        0.0013
     19 C          65.5424   96.4362   -4.3004 C.ar    1  UNL1       -0.0002
     20 C          65.1305   96.0293   -2.9167 C.ar    1  UNL1       -0.0026
     21 C          64.0826   94.9731   -2.7263 C.ar    1  UNL1       -0.0008
     22 H          61.8805   92.7432   -3.9846 H       1  UNL1        0.1549
     23 C          59.5109   89.9268    6.2986 C.2     1  UNL1        0.0016
     24 C          60.6017   90.6016    5.5209 C.2     1  UNL1        0.0209
     25 C          60.5500   87.0291    9.5809 C.ar    1  UNL1       -0.0061
     26 C          60.0867   86.5186    8.2487 C.ar    1  UNL1       -0.0029
     27 C          59.7404   87.4845    7.1545 C.ar    1  UNL1       -0.0003
     28 C          59.8573   88.9609    7.3926 C.ar    1  UNL1        0.0000
     29 C          60.3205   89.4713    8.7249 C.ar    1  UNL1       -0.0003
     30 C          60.6669   88.5054    9.8190 C.ar    1  UNL1       -0.0029
     31 C          60.8963   86.0632   10.6751 C.3     1  UNL1        0.0993
     32 C          63.8437   89.6348   13.0322 C.3     1  UNL1        0.0335
     33 C          63.4184   88.2061   12.8652 C.3     1  UNL1        0.1312
     34 C          62.3700   87.8490   11.8537 C.3     1  UNL1        0.1023
     35 N          61.9447   86.4203   11.6867 N.3     1  UNL1       -0.2648
     36 C          62.5678   85.3487   12.5312 C.3     1  UNL1        0.1023
     37 C          63.6163   85.7057   13.5429 C.3     1  UNL1        0.1312
     38 C          64.2393   84.6341   14.3874 C.3     1  UNL1        0.0335
     39 O          64.0415   87.1344   13.7099 O.3     1  UNL1       -0.3559
@<TRIPOS>BOND
     1    33    32    1
     2    33    34    1
     3    34    35    1
     4    35    31    1
     5    31    25    1
     6    25    26   ar
     7    26    27   ar
     8    27    28   ar
     9    28    23    1
    10    23    24    2
    11    24     1    1
    12     1     2    2
    13     2     3    1
    14     3     4    2
    15     4     5    1
    16     5     6    1
    17    10     6    1
    18    10    11    1
    19    12    11    1
    20    12    13    1
    21    13    14    2
    22    13    15   am
    23    15    16    1
    24    16    17   ar
    25    17    18   ar
    26    18    19   ar
    27    19    20   ar
    28    20    21   ar
    29     6     7    2
    30     7     8    1
    31     8     9    2
    32    28    29   ar
    33    29    30   ar
    34    35    36    1
    35    36    37    1
    36    37    38    1
    37    37    39    1
    38    39    33    1
    39    30    25   ar
    40     9     1    1
    41     9     4    1
    42    12    10    1
    43    21    16   ar
    44    21    12    1
    45    15    22    1
@<TRIPOS>MOLECULE
*****
 39 45 0 0 0
SMALL
GASTEIGER

@<TRIPOS>ATOM
      1 C          59.1299   90.6943    5.5053 C.2     1  UNL1        0.1040
      2 N          57.8090   91.3103    5.1506 N.2     1  UNL1       -0.1483
      3 N          58.0324   92.2642    4.0148 N.2     1  UNL1       -0.1520
      4 C          59.4915   92.2376    3.6674 C.2     1  UNL1        0.0860
      5 C          60.2899   92.9716    2.6313 C.3     1  UNL1        0.0697
      6 C          61.7668   92.7354    2.5163 C.2     1  UNL1       -0.0378
      7 C          62.4450   91.7651    3.4375 C.2     1  UNL1       -0.0080
      8 C          61.6465   91.0311    4.4737 C.2     1  UNL1        0.0022
      9 C          60.1697   91.2674    4.5886 C.2     1  UNL1        0.0350
     10 C          62.5654   93.4694    1.4801 C.3     1  UNL1        0.0315
     11 C          63.6410   94.4526    1.1252 C.3     1  UNL1        0.0179
     12 C          62.8728   93.7574    0.0405 C.3     1  UNL1        0.0927
     13 C          61.8462   92.8237   -0.5289 C.2     1  UNL1        0.2293
     14 O          60.9053   91.9612    0.2591 O.2     1  UNL1       -0.2744
     15 N          61.9256   92.9040   -2.0246 N.am    1  UNL1       -0.2839
     16 C          63.0013   93.8873   -2.3796 C.ar    1  UNL1        0.0467
     17 C          63.5234   94.3705   -3.7002 C.ar    1  UNL1        0.0144
     18 C          64.6308   95.3811   -3.7444 C.ar    1  UNL1        0.0013
     19 C          65.2163   95.9086   -2.4680 C.ar    1  UNL1       -0.0002
     20 C          64.6942   95.4254   -1.1475 C.ar    1  UNL1       -0.0026
     21 C          63.5867   94.4147   -1.1033 C.ar    1  UNL1       -0.0008
     22 H          61.3693   92.3998   -2.6615 H       1  UNL1        0.1549
     23 C          60.1882   90.0491    7.7887 C.2     1  UNL1        0.0016
     24 C          59.3690   89.6827    6.5868 C.2     1  UNL1        0.0209
     25 C          60.9054   87.0144   11.0331 C.ar    1  UNL1       -0.0061
     26 C          60.2929   86.5900    9.7313 C.ar    1  UNL1       -0.0029
     27 C          60.0538   87.6016    8.6498 C.ar    1  UNL1       -0.0003
     28 C          60.4273   89.0376    8.8701 C.ar    1  UNL1        0.0000
     29 C          61.0399   89.4619   10.1720 C.ar    1  UNL1       -0.0003
     30 C          61.2789   88.4504   11.2534 C.ar    1  UNL1       -0.0029
     31 C          61.1445   86.0028   12.1146 C.3     1  UNL1        0.0993
     32 C          64.3641   82.6303    9.8212 C.3     1  UNL1        0.0335
     33 C          64.0244   83.5187   10.9811 C.3     1  UNL1        0.1312
     34 C          62.7543   84.3166   10.9679 C.3     1  UNL1        0.1023
     35 N          62.4146   85.2050   12.1278 N.3     1  UNL1       -0.2648
     36 C          63.3450   85.2955   13.3008 C.3     1  UNL1        0.1023
     37 C          64.6152   84.4976   13.3141 C.3     1  UNL1        0.1312
     38 C          65.5456   84.5882   14.4871 C.3     1  UNL1        0.0335
     39 O          64.9549   83.6092   12.1542 O.3     1  UNL1       -0.3559
@<TRIPOS>BOND
     1    33    32    1
     2    33    34    1
     3    34    35    1
     4    35    31    1
     5    31    25    1
     6    25    26   ar
     7    26    27   ar
     8    27    28   ar
     9    28    23    1
    10    23    24    2
    11    24     1    1
    12     1     2    2
    13     2     3    1
    14     3     4    2
    15     4     5    1
    16     5     6    1
    17    10     6    1
    18    10    11    1
    19    12    11    1
    20    12    13    1
    21    13    14    2
    22    13    15   am
    23    15    16    1
    24    16    17   ar
    25    17    18   ar
    26    18    19   ar
    27    19    20   ar
    28    20    21   ar
    29     6     7    2
    30     7     8    1
    31     8     9    2
    32    28    29   ar
    33    29    30   ar
    34    35    36    1
    35    36    37    1
    36    37    38    1
    37    37    39    1
    38    39    33    1
    39    30    25   ar
    40     9     1    1
    41     9     4    1
    42    12    10    1
    43    21    16   ar
    44    21    12    1
    45    15    22    1
@<TRIPOS>MOLECULE
*****
 39 45 0 0 0
SMALL
GASTEIGER

@<TRIPOS>ATOM
      1 C          59.2075   89.6183    6.4177 C.2     1  UNL1        0.1040
      2 N          57.7469   89.9285    6.5604 N.2     1  UNL1       -0.1483
      3 N          57.4067   91.0168    5.5858 N.2     1  UNL1       -0.1520
      4 C          58.6571   91.3792    4.8407 C.2     1  UNL1        0.0860
      5 C          58.9260   92.3846    3.7605 C.3     1  UNL1        0.0697
      6 C          60.3079   92.5257    3.1944 C.2     1  UNL1       -0.0378
      7 C          61.4208   91.6614    3.7086 C.2     1  UNL1       -0.0080
      8 C          61.1520   90.6560    4.7887 C.2     1  UNL1        0.0022
      9 C          59.7701   90.5149    5.3548 C.2     1  UNL1        0.0350
     10 C          60.5768   93.5311    2.1142 C.3     1  UNL1        0.0315
     11 C          60.9744   94.9165    1.6988 C.3     1  UNL1        0.0179
     12 C          60.6451   93.8871    0.6586 C.3     1  UNL1        0.0927
     13 C          60.2348   92.5378    0.1478 C.2     1  UNL1        0.2293
     14 O          59.9033   91.3403    0.9882 O.2     1  UNL1       -0.2744
     15 N          60.2143   92.5962   -1.3509 N.am    1  UNL1       -0.2839
     16 C          60.6119   93.9816   -1.7663 C.ar    1  UNL1        0.0467
     17 C          60.7659   94.6196   -3.1151 C.ar    1  UNL1        0.0144
     18 C          61.1861   96.0556   -3.2218 C.ar    1  UNL1        0.0013
     19 C          61.4524   96.8534   -1.9798 C.ar    1  UNL1       -0.0002
     20 C          61.2984   96.2154   -0.6311 C.ar    1  UNL1       -0.0026
     21 C          60.8781   94.7794   -0.5244 C.ar    1  UNL1       -0.0008
     22 H          59.9809   91.8553   -1.9557 H       1  UNL1        0.1549
     23 C          60.4594   88.9124    8.5820 C.2     1  UNL1        0.0016
     24 C          59.9715   88.5917    7.2004 C.2     1  UNL1        0.0209
     25 C          62.7512   85.8327   10.9300 C.ar    1  UNL1       -0.0061
     26 C          61.9813   85.4248    9.7091 C.ar    1  UNL1       -0.0029
     27 C          61.2174   86.4513    8.9264 C.ar    1  UNL1       -0.0003
     28 C          61.2233   87.8858    9.3647 C.ar    1  UNL1        0.0000
     29 C          61.9933   88.2938   10.5857 C.ar    1  UNL1       -0.0003
     30 C          62.7572   87.2672   11.3683 C.ar    1  UNL1       -0.0029
     31 C          63.5152   84.8062   11.7127 C.3     1  UNL1        0.0993
     32 C          62.3523   85.2443   16.7580 C.3     1  UNL1        0.0335
     33 C          62.3454   84.4464   15.4879 C.3     1  UNL1        0.1312
     34 C          62.9337   85.0252   14.2354 C.3     1  UNL1        0.1023
     35 N          62.9269   84.2273   12.9652 N.3     1  UNL1       -0.2648
     36 C          62.3316   82.8507   12.9476 C.3     1  UNL1        0.1023
     37 C          61.7432   82.2718   14.2001 C.3     1  UNL1        0.1312
     38 C          61.1480   80.8951   14.1824 C.3     1  UNL1        0.0335
     39 O          61.7501   83.0697   15.4703 O.3     1  UNL1       -0.3559
@<TRIPOS>BOND
     1    33    32    1
     2    33    34    1
     3    34    35    1
     4    35    31    1
     5    31    25    1
     6    25    26   ar
     7    26    27   ar
     8    27    28   ar
     9    28    23    1
    10    23    24    2
    11    24     1    1
    12     1     2    2
    13     2     3    1
    14     3     4    2
    15     4     5    1
    16     5     6    1
    17    10     6    1
    18    10    11    1
    19    12    11    1
    20    12    13    1
    21    13    14    2
    22    13    15   am
    23    15    16    1
    24    16    17   ar
    25    17    18   ar
    26    18    19   ar
    27    19    20   ar
    28    20    21   ar
    29     6     7    2
    30     7     8    1
    31     8     9    2
    32    28    29   ar
    33    29    30   ar
    34    35    36    1
    35    36    37    1
    36    37    38    1
    37    37    39    1
    38    39    33    1
    39    30    25   ar
    40     9     1    1
    41     9     4    1
    42    12    10    1
    43    21    16   ar
    44    21    12    1
    45    15    22    1
@<TRIPOS>MOLECULE
*****
 39 45 0 0 0
SMALL
GASTEIGER

@<TRIPOS>ATOM
      1 C          59.3281   89.4349    6.8511 C.2     1  UNL1        0.1040
      2 N          58.1877   88.4605    6.8478 N.2     1  UNL1       -0.1483
      3 N          58.3972   87.4979    7.9790 N.2     1  UNL1       -0.1520
      4 C          59.6671   87.8775    8.6814 C.2     1  UNL1        0.0860
      5 C          60.3739   87.2876    9.8657 C.3     1  UNL1        0.0697
      6 C          61.6560   87.8949   10.3529 C.2     1  UNL1       -0.0378
      7 C          62.2313   89.0921    9.6558 C.2     1  UNL1       -0.0080
      8 C          61.5245   89.6819    8.4715 C.2     1  UNL1        0.0022
      9 C          60.2424   89.0746    7.9843 C.2     1  UNL1        0.0350
     10 C          62.3628   87.3051   11.5372 C.3     1  UNL1        0.0315
     11 C          63.1027   87.4834   12.8297 C.3     1  UNL1        0.0179
     12 C          62.8472   86.1052   12.2959 C.3     1  UNL1        0.0927
     13 C          62.3262   85.0860   11.3265 C.2     1  UNL1        0.2293
     14 O          61.5817   85.3763   10.0571 O.2     1  UNL1       -0.2744
     15 N          62.6804   83.7254   11.8494 N.am    1  UNL1       -0.2839
     16 C          63.4204   83.9038   13.1419 C.ar    1  UNL1        0.0467
     17 C          64.0136   82.9169   14.1033 C.ar    1  UNL1        0.0144
     18 C          64.7098   83.4009   15.3406 C.ar    1  UNL1        0.0013
     19 C          64.8129   84.8717   15.6165 C.ar    1  UNL1       -0.0002
     20 C          64.2196   85.8585   14.6552 C.ar    1  UNL1       -0.0026
     21 C          63.5234   85.3746   13.4179 C.ar    1  UNL1       -0.0008
     22 H          62.4651   82.8662   11.4196 H       1  UNL1        0.1549
     23 C          60.6770   90.5569    4.9350 C.2     1  UNL1        0.0016
     24 C          59.5204   90.5704    5.8899 C.2     1  UNL1        0.0209
     25 C          61.2538   93.9632    2.0515 C.ar    1  UNL1       -0.0061
     26 C          59.9316   93.7742    2.7341 C.ar    1  UNL1       -0.0029
     27 C          59.7393   92.6387    3.6953 C.ar    1  UNL1       -0.0003
     28 C          60.8693   91.6923    3.9738 C.ar    1  UNL1        0.0000
     29 C          62.1915   91.8815    3.2912 C.ar    1  UNL1       -0.0003
     30 C          62.3838   93.0169    2.3300 C.ar    1  UNL1       -0.0029
     31 C          61.4461   95.0987    1.0903 C.3     1  UNL1        0.0993
     32 C          63.3187   92.9814   -3.2698 C.3     1  UNL1        0.0335
     33 C          63.4495   93.9604   -2.1408 C.3     1  UNL1        0.1312
     34 C          62.3824   94.0400   -1.0897 C.3     1  UNL1        0.1023
     35 N          62.5132   95.0190    0.0392 N.3     1  UNL1       -0.2648
     36 C          63.7112   95.9183    0.1170 C.3     1  UNL1        0.1023
     37 C          64.7784   95.8387   -0.9341 C.3     1  UNL1        0.1312
     38 C          65.9763   96.7380   -0.8562 C.3     1  UNL1        0.0335
     39 O          64.6475   94.8597   -2.0630 O.3     1  UNL1       -0.3559
@<TRIPOS>BOND
     1    33    32    1
     2    33    34    1
     3    34    35    1
     4    35    31    1
     5    31    25    1
     6    25    26   ar
     7    26    27   ar
     8    27    28   ar
     9    28    23    1
    10    23    24    2
    11    24     1    1
    12     1     2    2
    13     2     3    1
    14     3     4    2
    15     4     5    1
    16     5     6    1
    17    10     6    1
    18    10    11    1
    19    12    11    1
    20    12    13    1
    21    13    14    2
    22    13    15   am
    23    15    16    1
    24    16    17   ar
    25    17    18   ar
    26    18    19   ar
    27    19    20   ar
    28    20    21   ar
    29     6     7    2
    30     7     8    1
    31     8     9    2
    32    28    29   ar
    33    29    30   ar
    34    35    36    1
    35    36    37    1
    36    37    38    1
    37    37    39    1
    38    39    33    1
    39    30    25   ar
    40     9     1    1
    41     9     4    1
    42    12    10    1
    43    21    16   ar
    44    21    12    1
    45    15    22    1
