@<TRIPOS>MOLECULE
*****
 28 31 0 0 0
SMALL
GASTEIGER

@<TRIPOS>ATOM
      1 C          63.6648   86.9386   15.8542 C.ar    1  UNL1        0.0505
      2 C          63.0562   87.9250   16.8064 C.ar    1  UNL1        0.0178
      3 C          63.1626   89.3958   16.5322 C.ar    1  UNL1        0.0382
      4 C          63.8775   89.8803   15.3057 C.ar    1  UNL1        0.1385
      5 C          64.4861   88.8939   14.3535 C.ar    1  UNL1        0.0382
      6 C          64.3797   87.4230   14.6278 C.ar    1  UNL1        0.0178
      7 O          62.3308   85.1341   13.8632 O.2     1  UNL1       -0.2733
      8 C          62.8914   84.5654   15.1329 C.2     1  UNL1        0.2425
      9 N          63.5584   85.4677   16.1285 N.am    1  UNL1       -0.2828
     10 H          63.9264   85.0945   16.9619 H       1  UNL1        0.1549
     11 C          62.7850   83.0946   15.4072 C.3     1  UNL1        0.1589
     12 N          62.8056   82.1162   14.2703 N.3     1  UNL1       -0.2607
     13 C          63.6628   82.3812   13.0683 C.3     1  UNL1        0.1050
     14 C          63.6834   81.4028   11.9315 C.3     1  UNL1        0.1595
     15 O          62.8468   80.1595   11.9967 O.3     1  UNL1       -0.3508
     16 C          61.9896   79.8946   13.1987 C.3     1  UNL1        0.1595
     17 C          61.9690   80.8729   14.3355 C.3     1  UNL1        0.1050
     18 O          63.9839   91.3512   15.0314 O.3     1  UNL1       -0.4791
     19 C          64.7457   91.8377   13.8344 C.3     1  UNL1        0.1687
     20 C          66.0679   92.5228   14.0146 C.3     1  UNL1        0.0609
     21 C          66.8298   93.0094   12.8176 C.3     1  UNL1        0.0758
     22 N          66.2695   92.8109   11.4404 N.3     1  UNL1       -0.2737
     23 C          64.9473   92.1258   11.2603 C.3     1  UNL1        0.0758
     24 C          64.1854   91.6393   12.4573 C.3     1  UNL1        0.0609
     25 C          67.0313   93.2975   10.2434 C.3     1  UNL1        0.0575
     26 C          67.0424   94.5609    9.4348 C.3     1  UNL1        0.0160
     27 C          68.1087   93.9856    8.5506 C.3     1  UNL1        0.0028
     28 C          68.0977   92.7222    9.3591 C.3     1  UNL1        0.0160
@<TRIPOS>BOND
     1     7     8    2
     2     8    11    1
     3    11    12    1
     4    12    13    1
     5    13    14    1
     6    14    15    1
     7    15    16    1
     8    16    17    1
     9     8     9   am
    10     9     1    1
    11     1     2   ar
    12     2     3   ar
    13     3     4   ar
    14     4    18    1
    15    18    19    1
    16    19    20    1
    17    20    21    1
    18    21    22    1
    19    22    25    1
    20    25    26    1
    21    26    27    1
    22    27    28    1
    23    22    23    1
    24    23    24    1
    25     4     5   ar
    26     5     6   ar
    27    17    12    1
    28     6     1   ar
    29    24    19    1
    30    28    25    1
    31     9    10    1
@<TRIPOS>MOLECULE
*****
 28 31 0 0 0
SMALL
GASTEIGER

@<TRIPOS>ATOM
      1 C          63.6625   86.9193   15.8801 C.ar    1  UNL1        0.0505
      2 C          64.4084   87.4065   14.6733 C.ar    1  UNL1        0.0178
      3 C          64.5303   88.8783   14.4106 C.ar    1  UNL1        0.0382
      4 C          63.9064   89.8629   15.3548 C.ar    1  UNL1        0.1385
      5 C          63.1606   89.3756   16.5616 C.ar    1  UNL1        0.0382
      6 C          63.0386   87.9038   16.8242 C.ar    1  UNL1        0.0178
      7 O          62.3213   85.1427   13.8688 O.2     1  UNL1       -0.2733
      8 C          62.8700   84.5592   15.1370 C.2     1  UNL1        0.2425
      9 N          63.5406   85.4475   16.1427 N.am    1  UNL1       -0.2828
     10 H          63.9007   85.0645   16.9751 H       1  UNL1        0.1549
     11 C          62.7480   83.0874   15.3997 C.3     1  UNL1        0.1589
     12 N          62.7909   82.1157   14.2577 N.3     1  UNL1       -0.2607
     13 C          62.0050   80.8401   14.3285 C.3     1  UNL1        0.1050
     14 C          62.0479   79.8684   13.1866 C.3     1  UNL1        0.1595
     15 O          62.8768   80.1724   11.9739 O.3     1  UNL1       -0.3508
     16 C          63.6627   81.4480   11.9032 C.3     1  UNL1        0.1595
     17 C          63.6198   82.4197   13.0450 C.3     1  UNL1        0.1050
     18 O          64.0283   91.3346   15.0922 O.3     1  UNL1       -0.4791
     19 C          64.7730   91.8218   13.8847 C.3     1  UNL1        0.1687
     20 C          64.1811   91.6474   12.5176 C.3     1  UNL1        0.0609
     21 C          64.9258   92.1346   11.3101 C.3     1  UNL1        0.0758
     22 N          66.2625   92.7963   11.4697 N.3     1  UNL1       -0.2737
     23 C          66.8544   92.9707   12.8369 C.3     1  UNL1        0.0758
     24 C          66.1097   92.4835   14.0444 C.3     1  UNL1        0.0609
     25 C          67.0072   93.2835   10.2623 C.3     1  UNL1        0.0575
     26 C          68.1023   92.7326    9.3977 C.3     1  UNL1        0.0160
     27 C          68.0604   93.9725    8.5546 C.3     1  UNL1        0.0028
     28 C          66.9653   94.5234    9.4191 C.3     1  UNL1        0.0160
@<TRIPOS>BOND
     1     7     8    2
     2     8    11    1
     3    11    12    1
     4    12    13    1
     5    13    14    1
     6    14    15    1
     7    15    16    1
     8    16    17    1
     9     8     9   am
    10     9     1    1
    11     1     2   ar
    12     2     3   ar
    13     3     4   ar
    14     4    18    1
    15    18    19    1
    16    19    20    1
    17    20    21    1
    18    21    22    1
    19    22    25    1
    20    25    26    1
    21    26    27    1
    22    27    28    1
    23    22    23    1
    24    23    24    1
    25     4     5   ar
    26     5     6   ar
    27    17    12    1
    28     6     1   ar
    29    24    19    1
    30    28    25    1
    31     9    10    1
@<TRIPOS>MOLECULE
*****
 28 31 0 0 0
SMALL
GASTEIGER

@<TRIPOS>ATOM
      1 C          64.2806   90.7554   14.2369 C.ar    1  UNL1        0.0505
      2 C          63.7927   90.8019   15.6546 C.ar    1  UNL1        0.0178
      3 C          63.5222   89.5268   16.3969 C.ar    1  UNL1        0.0382
      4 C          63.7397   88.2052   15.7215 C.ar    1  UNL1        0.1385
      5 C          64.2277   88.1587   14.3038 C.ar    1  UNL1        0.0382
      6 C          64.4981   89.4339   13.5616 C.ar    1  UNL1        0.0178
      7 O          67.0737   91.8401   14.0866 O.2     1  UNL1       -0.2733
      8 C          65.9476   92.5728   13.4195 C.2     1  UNL1        0.2425
      9 N          64.5511   92.0305   13.4947 N.am    1  UNL1       -0.2828
     10 H          63.8120   92.5114   13.0568 H       1  UNL1        0.1549
     11 C          66.2181   93.8479   12.6772 C.3     1  UNL1        0.1589
     12 N          66.8309   93.8036   11.3088 N.3     1  UNL1       -0.2607
     13 C          66.8493   95.0367   10.4550 C.3     1  UNL1        0.1050
     14 C          67.4621   94.9924    9.0866 C.3     1  UNL1        0.1595
     15 O          68.0565   93.7150    8.5720 O.3     1  UNL1       -0.3508
     16 C          68.0381   92.4818    9.4258 C.3     1  UNL1        0.1595
     17 C          67.4253   92.5262   10.7942 C.3     1  UNL1        0.1050
     18 O          63.4693   86.9301   16.4638 O.3     1  UNL1       -0.4791
     19 C          63.3231   85.6408   15.7113 C.3     1  UNL1        0.1687
     20 C          62.0580   84.8434   15.8284 C.3     1  UNL1        0.0609
     21 C          61.9118   83.5540   15.0759 C.3     1  UNL1        0.0758
     22 N          63.0306   83.0621   14.2064 N.3     1  UNL1       -0.2737
     23 C          64.2956   83.8595   14.0892 C.3     1  UNL1        0.0758
     24 C          64.4419   85.1489   14.8417 C.3     1  UNL1        0.0609
     25 C          62.8844   81.7728   13.4539 C.3     1  UNL1        0.0575
     26 C          62.5535   80.3582   13.8276 C.3     1  UNL1        0.0160
     27 C          62.6776   79.9494   12.3897 C.3     1  UNL1        0.0028
     28 C          63.0085   81.3639   12.0160 C.3     1  UNL1        0.0160
@<TRIPOS>BOND
     1     7     8    2
     2     8    11    1
     3    11    12    1
     4    12    13    1
     5    13    14    1
     6    14    15    1
     7    15    16    1
     8    16    17    1
     9     8     9   am
    10     9     1    1
    11     1     2   ar
    12     2     3   ar
    13     3     4   ar
    14     4    18    1
    15    18    19    1
    16    19    20    1
    17    20    21    1
    18    21    22    1
    19    22    25    1
    20    25    26    1
    21    26    27    1
    22    27    28    1
    23    22    23    1
    24    23    24    1
    25     4     5   ar
    26     5     6   ar
    27    17    12    1
    28     6     1   ar
    29    24    19    1
    30    28    25    1
    31     9    10    1
@<TRIPOS>MOLECULE
*****
 28 31 0 0 0
SMALL
GASTEIGER

@<TRIPOS>ATOM
      1 C          64.8635   91.7337   12.9143 C.ar    1  UNL1        0.0505
      2 C          65.6957   91.2926   14.0818 C.ar    1  UNL1        0.0178
      3 C          65.4137   89.9799   14.7505 C.ar    1  UNL1        0.0382
      4 C          64.2995   89.1082   14.2518 C.ar    1  UNL1        0.1385
      5 C          63.4673   89.5493   13.0843 C.ar    1  UNL1        0.0382
      6 C          63.7493   90.8621   12.4156 C.ar    1  UNL1        0.0178
      7 O          66.8744   93.6190   14.0985 O.2     1  UNL1       -0.2733
      8 C          66.1510   93.9891   12.8377 C.2     1  UNL1        0.2425
      9 N          65.1455   93.0464   12.2456 N.am    1  UNL1       -0.2828
     10 H          64.6707   93.2893   11.4181 H       1  UNL1        0.1549
     11 C          66.4330   95.3018   12.1690 C.3     1  UNL1        0.1589
     12 N          66.8556   95.3350   10.7301 N.3     1  UNL1       -0.2607
     13 C          66.8057   96.6232    9.9633 C.3     1  UNL1        0.1050
     14 C          67.2283   96.6564    8.5245 C.3     1  UNL1        0.1595
     15 O          67.7008   95.4013    7.8524 O.3     1  UNL1       -0.3508
     16 C          67.7508   94.1131    8.6192 C.3     1  UNL1        0.1595
     17 C          67.3282   94.0800   10.0580 C.3     1  UNL1        0.1050
     18 O          64.0175   87.7955   14.9205 O.3     1  UNL1       -0.4791
     19 C          63.8953   86.5463   14.0992 C.3     1  UNL1        0.1687
     20 C          64.6390   85.3078   14.5025 C.3     1  UNL1        0.0609
     21 C          64.5168   84.0586   13.6812 C.3     1  UNL1        0.0758
     22 N          63.6509   84.0480   12.4565 N.3     1  UNL1       -0.2737
     23 C          62.9071   85.2865   12.0531 C.3     1  UNL1        0.0758
     24 C          63.0293   86.5357   12.8745 C.3     1  UNL1        0.0609
     25 C          63.5287   82.7988   11.6351 C.3     1  UNL1        0.0575
     26 C          64.0809   82.3362   10.3194 C.3     1  UNL1        0.0160
     27 C          63.3559   81.0322   10.4736 C.3     1  UNL1        0.0028
     28 C          62.8036   81.4947   11.7893 C.3     1  UNL1        0.0160
@<TRIPOS>BOND
     1     7     8    2
     2     8    11    1
     3    11    12    1
     4    12    13    1
     5    13    14    1
     6    14    15    1
     7    15    16    1
     8    16    17    1
     9     8     9   am
    10     9     1    1
    11     1     2   ar
    12     2     3   ar
    13     3     4   ar
    14     4    18    1
    15    18    19    1
    16    19    20    1
    17    20    21    1
    18    21    22    1
    19    22    25    1
    20    25    26    1
    21    26    27    1
    22    27    28    1
    23    22    23    1
    24    23    24    1
    25     4     5   ar
    26     5     6   ar
    27    17    12    1
    28     6     1   ar
    29    24    19    1
    30    28    25    1
    31     9    10    1
@<TRIPOS>MOLECULE
*****
 28 31 0 0 0
SMALL
GASTEIGER

@<TRIPOS>ATOM
      1 C          59.2202   89.9033    5.8853 C.ar    1  UNL1        0.0505
      2 C          60.5725   90.3176    5.3856 C.ar    1  UNL1        0.0178
      3 C          60.7214   91.5723    4.5773 C.ar    1  UNL1        0.0382
      4 C          59.5179   92.4128    4.2686 C.ar    1  UNL1        0.1385
      5 C          58.1656   91.9985    4.7682 C.ar    1  UNL1        0.0382
      6 C          58.0168   90.7437    5.5766 C.ar    1  UNL1        0.0178
      7 O          60.4774   89.7114    8.6024 O.2     1  UNL1       -0.2733
      8 C          59.6999   88.5526    8.0522 C.2     1  UNL1        0.2425
      9 N          59.0713   88.6486    6.6936 N.am    1  UNL1       -0.2828
     10 H          58.5611   87.8880    6.3325 H       1  UNL1        0.1549
     11 C          59.5511   87.2979    8.8605 C.3     1  UNL1        0.1589
     12 N          60.7602   86.4796    9.2049 N.3     1  UNL1       -0.2607
     13 C          61.6323   85.9340    8.1132 C.3     1  UNL1        0.1050
     14 C          62.8414   85.1158    8.4576 C.3     1  UNL1        0.1595
     15 O          63.1784   84.8432    9.8937 O.3     1  UNL1       -0.3508
     16 C          62.3063   85.3888   10.9853 C.3     1  UNL1        0.1595
     17 C          61.0972   86.2070   10.6409 C.3     1  UNL1        0.1050
     18 O          59.6668   93.6676    3.4603 O.3     1  UNL1       -0.4791
     19 C          60.2780   93.6100    2.0917 C.3     1  UNL1        0.1687
     20 C          59.4301   93.2570    0.9058 C.3     1  UNL1        0.0609
     21 C          60.0413   93.1994   -0.4628 C.3     1  UNL1        0.0758
     22 N          61.5005   93.4948   -0.6455 N.3     1  UNL1       -0.2737
     23 C          62.3485   93.8478    0.5404 C.3     1  UNL1        0.0758
     24 C          61.7372   93.9054    1.9089 C.3     1  UNL1        0.0609
     25 C          62.1118   93.4372   -2.0141 C.3     1  UNL1        0.0575
     26 C          61.6161   93.6830   -3.4084 C.3     1  UNL1        0.0160
     27 C          62.9762   93.3558   -3.9496 C.3     1  UNL1        0.0028
     28 C          63.4720   93.1099   -2.5554 C.3     1  UNL1        0.0160
@<TRIPOS>BOND
     1     7     8    2
     2     8    11    1
     3    11    12    1
     4    12    13    1
     5    13    14    1
     6    14    15    1
     7    15    16    1
     8    16    17    1
     9     8     9   am
    10     9     1    1
    11     1     2   ar
    12     2     3   ar
    13     3     4   ar
    14     4    18    1
    15    18    19    1
    16    19    20    1
    17    20    21    1
    18    21    22    1
    19    22    25    1
    20    25    26    1
    21    26    27    1
    22    27    28    1
    23    22    23    1
    24    23    24    1
    25     4     5   ar
    26     5     6   ar
    27    17    12    1
    28     6     1   ar
    29    24    19    1
    30    28    25    1
    31     9    10    1
@<TRIPOS>MOLECULE
*****
 28 31 0 0 0
SMALL
GASTEIGER

@<TRIPOS>ATOM
      1 C          60.0999   92.4115    3.7891 C.ar    1  UNL1        0.0505
      2 C          58.6300   92.4276    4.0879 C.ar    1  UNL1        0.0178
      3 C          58.0537   91.4518    5.0704 C.ar    1  UNL1        0.0382
      4 C          58.9472   90.4597    5.7542 C.ar    1  UNL1        0.1385
      5 C          60.4170   90.4436    5.4554 C.ar    1  UNL1        0.0382
      6 C          60.9934   91.4195    4.4728 C.ar    1  UNL1        0.0178
      7 O          59.9581   91.8392    0.8476 O.2     1  UNL1       -0.2733
      8 C          60.6054   93.1012    1.3357 C.2     1  UNL1        0.2425
      9 N          60.6762   93.3874    2.8065 N.am    1  UNL1       -0.2828
     10 H          61.1011   94.2157    3.1270 H       1  UNL1        0.1549
     11 C          61.1817   94.0771    0.3532 C.3     1  UNL1        0.1589
     12 N          62.6658   94.2847    0.2849 N.3     1  UNL1       -0.2607
     13 C          63.2216   95.5163   -0.3664 C.3     1  UNL1        0.1050
     14 C          64.7055   95.7238   -0.4346 C.3     1  UNL1        0.1595
     15 O          65.6337   94.6998    0.1484 O.3     1  UNL1       -0.3508
     16 C          65.0779   93.4682    0.7996 C.3     1  UNL1        0.1595
     17 C          63.5939   93.2607    0.8679 C.3     1  UNL1        0.1050
     18 O          58.3708   89.4838    6.7368 O.3     1  UNL1       -0.4791
     19 C          59.2744   88.5432    7.4776 C.3     1  UNL1        0.1687
     20 C          59.3069   87.0892    7.1104 C.3     1  UNL1        0.0609
     21 C          60.2105   86.1486    7.8512 C.3     1  UNL1        0.0758
     22 N          61.0816   86.6620    8.9592 N.3     1  UNL1       -0.2737
     23 C          61.0492   88.1159    9.3263 C.3     1  UNL1        0.0758
     24 C          60.1456   89.0566    8.5855 C.3     1  UNL1        0.0609
     25 C          61.9852   85.7213    9.6999 C.3     1  UNL1        0.0575
     26 C          63.1072   84.8036    9.3139 C.3     1  UNL1        0.0160
     27 C          63.2630   84.3911   10.7476 C.3     1  UNL1        0.0028
     28 C          62.1411   85.3088   11.1337 C.3     1  UNL1        0.0160
@<TRIPOS>BOND
     1     7     8    2
     2     8    11    1
     3    11    12    1
     4    12    13    1
     5    13    14    1
     6    14    15    1
     7    15    16    1
     8    16    17    1
     9     8     9   am
    10     9     1    1
    11     1     2   ar
    12     2     3   ar
    13     3     4   ar
    14     4    18    1
    15    18    19    1
    16    19    20    1
    17    20    21    1
    18    21    22    1
    19    22    25    1
    20    25    26    1
    21    26    27    1
    22    27    28    1
    23    22    23    1
    24    23    24    1
    25     4     5   ar
    26     5     6   ar
    27    17    12    1
    28     6     1   ar
    29    24    19    1
    30    28    25    1
    31     9    10    1
@<TRIPOS>MOLECULE
*****
 28 31 0 0 0
SMALL
GASTEIGER

@<TRIPOS>ATOM
      1 C          59.9952   92.2685    3.8833 C.ar    1  UNL1        0.0505
      2 C          58.5253   92.2383    4.1810 C.ar    1  UNL1        0.0178
      3 C          57.9841   91.2685    5.1891 C.ar    1  UNL1        0.0382
      4 C          58.9127   90.3288    5.8996 C.ar    1  UNL1        0.1385
      5 C          60.3825   90.3590    5.6019 C.ar    1  UNL1        0.0382
      6 C          60.9238   91.3289    4.5937 C.ar    1  UNL1        0.0178
      7 O          62.5287   91.6383    2.4055 O.2     1  UNL1       -0.2733
      8 C          61.8033   92.9233    2.1362 C.2     1  UNL1        0.2425
      9 N          60.5364   93.2384    2.8751 N.am    1  UNL1       -0.2828
     10 H          60.0603   94.0817    2.6984 H       1  UNL1        0.1549
     11 C          62.3445   93.8931    1.1280 C.3     1  UNL1        0.1589
     12 N          61.9498   93.7742   -0.3142 N.3     1  UNL1       -0.2607
     13 C          63.0044   93.7439   -1.3804 C.3     1  UNL1        0.1050
     14 C          62.6096   93.6250   -2.8226 C.3     1  UNL1        0.1595
     15 O          61.1602   93.5363   -3.1986 O.3     1  UNL1       -0.3508
     16 C          60.1056   93.5665   -2.1324 C.3     1  UNL1        0.1595
     17 C          60.5004   93.6855   -0.6903 C.3     1  UNL1        0.1050
     18 O          58.3714   89.3590    6.9078 O.3     1  UNL1       -0.4791
     19 C          59.3012   88.4259    7.6253 C.3     1  UNL1        0.1687
     20 C          60.1755   88.9409    8.7300 C.3     1  UNL1        0.0609
     21 C          61.1053   88.0079    9.4475 C.3     1  UNL1        0.0758
     22 N          61.1609   86.5598    9.0603 N.3     1  UNL1       -0.2737
     23 C          60.2866   86.0448    7.9556 C.3     1  UNL1        0.0758
     24 C          59.3568   86.9778    7.2381 C.3     1  UNL1        0.0609
     25 C          62.0907   85.6268    9.7779 C.3     1  UNL1        0.0575
     26 C          63.1566   84.6593    9.3559 C.3     1  UNL1        0.0160
     27 C          63.4056   84.3072   10.7926 C.3     1  UNL1        0.0028
     28 C          62.3397   85.2746   11.2146 C.3     1  UNL1        0.0160
@<TRIPOS>BOND
     1     7     8    2
     2     8    11    1
     3    11    12    1
     4    12    13    1
     5    13    14    1
     6    14    15    1
     7    15    16    1
     8    16    17    1
     9     8     9   am
    10     9     1    1
    11     1     2   ar
    12     2     3   ar
    13     3     4   ar
    14     4    18    1
    15    18    19    1
    16    19    20    1
    17    20    21    1
    18    21    22    1
    19    22    25    1
    20    25    26    1
    21    26    27    1
    22    27    28    1
    23    22    23    1
    24    23    24    1
    25     4     5   ar
    26     5     6   ar
    27    17    12    1
    28     6     1   ar
    29    24    19    1
    30    28    25    1
    31     9    10    1
@<TRIPOS>MOLECULE
*****
 28 31 0 0 0
SMALL
GASTEIGER

@<TRIPOS>ATOM
      1 C          63.6200   87.8391   15.9312 C.ar    1  UNL1        0.0505
      2 C          64.3890   86.9094   15.0399 C.ar    1  UNL1        0.0178
      3 C          64.1473   85.4308   15.1114 C.ar    1  UNL1        0.0382
      4 C          63.1365   84.8817   16.0742 C.ar    1  UNL1        0.1385
      5 C          62.3675   85.8114   16.9655 C.ar    1  UNL1        0.0382
      6 C          62.6093   87.2901   16.8940 C.ar    1  UNL1        0.0178
      7 O          63.1382   89.3154   13.3644 O.2     1  UNL1       -0.2733
      8 C          63.6209   90.0559   14.5763 C.2     1  UNL1        0.2425
      9 N          63.8618   89.3177   15.8597 N.am    1  UNL1       -0.2828
     10 H          64.1785   89.8037   16.6551 H       1  UNL1        0.1549
     11 C          63.8626   91.5345   14.5048 C.3     1  UNL1        0.1589
     12 N          65.2628   92.0611   14.3940 N.3     1  UNL1       -0.2607
     13 C          65.9336   92.1318   13.0542 C.3     1  UNL1        0.1050
     14 C          67.3338   92.6584   12.9435 C.3     1  UNL1        0.1595
     15 O          68.0630   93.1143   14.1724 O.3     1  UNL1       -0.3508
     16 C          67.3922   93.0436   15.5121 C.3     1  UNL1        0.1595
     17 C          65.9921   92.5170   15.6229 C.3     1  UNL1        0.1050
     18 O          62.8948   83.4031   16.1457 O.3     1  UNL1       -0.4791
     19 C          62.8963   82.5813   14.8909 C.3     1  UNL1        0.1687
     20 C          61.7730   81.6253   14.6190 C.3     1  UNL1        0.0609
     21 C          61.7745   80.8035   13.3641 C.3     1  UNL1        0.0758
     22 N          62.8995   80.9378   12.3811 N.3     1  UNL1       -0.2737
     23 C          64.0229   81.8938   12.6530 C.3     1  UNL1        0.0758
     24 C          64.0213   82.7156   13.9078 C.3     1  UNL1        0.0609
     25 C          62.9010   80.1160   11.1262 C.3     1  UNL1        0.0575
     26 C          63.2431   80.3754    9.6889 C.3     1  UNL1        0.0160
     27 C          62.9032   78.9539    9.3516 C.3     1  UNL1        0.0028
     28 C          62.5612   78.6945   10.7888 C.3     1  UNL1        0.0160
@<TRIPOS>BOND
     1     7     8    2
     2     8    11    1
     3    11    12    1
     4    12    13    1
     5    13    14    1
     6    14    15    1
     7    15    16    1
     8    16    17    1
     9     8     9   am
    10     9     1    1
    11     1     2   ar
    12     2     3   ar
    13     3     4   ar
    14     4    18    1
    15    18    19    1
    16    19    20    1
    17    20    21    1
    18    21    22    1
    19    22    25    1
    20    25    26    1
    21    26    27    1
    22    27    28    1
    23    22    23    1
    24    23    24    1
    25     4     5   ar
    26     5     6   ar
    27    17    12    1
    28     6     1   ar
    29    24    19    1
    30    28    25    1
    31     9    10    1
@<TRIPOS>MOLECULE
*****
 28 31 0 0 0
SMALL
GASTEIGER

@<TRIPOS>ATOM
      1 C          59.5480   92.2496    4.0721 C.ar    1  UNL1        0.0505
      2 C          58.1955   91.8605    4.5909 C.ar    1  UNL1        0.0178
      3 C          58.0670   90.7517    5.5929 C.ar    1  UNL1        0.0382
      4 C          59.2912   90.0319    6.0761 C.ar    1  UNL1        0.1385
      5 C          60.6438   90.4210    5.5573 C.ar    1  UNL1        0.0382
      6 C          60.7722   91.5299    4.5553 C.ar    1  UNL1        0.0178
      7 O          61.6839   92.1306    1.9687 O.2     1  UNL1       -0.2733
      8 C          60.7444   93.2989    2.0184 C.2     1  UNL1        0.2425
      9 N          59.6765   93.3584    3.0701 N.am    1  UNL1       -0.2828
     10 H          59.0599   94.1252    3.1027 H       1  UNL1        0.1549
     11 C          60.8729   94.4077    1.0164 C.3     1  UNL1        0.1589
     12 N          60.5895   94.1453   -0.4331 N.3     1  UNL1       -0.2607
     13 C          61.5483   94.6227   -1.4831 C.3     1  UNL1        0.1050
     14 C          61.2649   94.3603   -2.9325 C.3     1  UNL1        0.1595
     15 O          60.0227   93.6205   -3.3319 O.3     1  UNL1       -0.3508
     16 C          59.0638   93.1431   -2.2818 C.3     1  UNL1        0.1595
     17 C          59.3472   93.4055   -0.8324 C.3     1  UNL1        0.1050
     18 O          59.1628   88.9232    7.0781 O.3     1  UNL1       -0.4791
     19 C          60.0545   88.8949    8.2839 C.3     1  UNL1        0.1687
     20 C          60.1740   90.1086    9.1570 C.3     1  UNL1        0.0609
     21 C          61.0658   90.0804   10.3628 C.3     1  UNL1        0.0758
     22 N          61.8381   88.8383   10.6954 N.3     1  UNL1       -0.2737
     23 C          61.7187   87.6245    9.8223 C.3     1  UNL1        0.0758
     24 C          60.8269   87.6528    8.6165 C.3     1  UNL1        0.0609
     25 C          62.7299   88.8100   11.9012 C.3     1  UNL1        0.0575
     26 C          63.2836   89.8448   12.8355 C.3     1  UNL1        0.0160
     27 C          63.9911   88.7700   13.6064 C.3     1  UNL1        0.0028
     28 C          63.4374   87.7353   12.6723 C.3     1  UNL1        0.0160
@<TRIPOS>BOND
     1     7     8    2
     2     8    11    1
     3    11    12    1
     4    12    13    1
     5    13    14    1
     6    14    15    1
     7    15    16    1
     8    16    17    1
     9     8     9   am
    10     9     1    1
    11     1     2   ar
    12     2     3   ar
    13     3     4   ar
    14     4    18    1
    15    18    19    1
    16    19    20    1
    17    20    21    1
    18    21    22    1
    19    22    25    1
    20    25    26    1
    21    26    27    1
    22    27    28    1
    23    22    23    1
    24    23    24    1
    25     4     5   ar
    26     5     6   ar
    27    17    12    1
    28     6     1   ar
    29    24    19    1
    30    28    25    1
    31     9    10    1
