@<TRIPOS>MOLECULE
*****
 25 27 0 0 0
SMALL
GASTEIGER

@<TRIPOS>ATOM
      1 C          64.8411   90.7711   13.9195 C.ar    1  UNL1        0.0594
      2 C          66.0968   91.5262   14.2404 C.ar    1  UNL1        0.0164
      3 C          66.6601   92.5006   13.2490 C.ar    1  UNL1        0.0181
      4 C          65.9677   92.7201   11.9366 C.ar    1  UNL1        0.0759
      5 C          64.7120   91.9651   11.6156 C.ar    1  UNL1        0.1546
      6 F          64.0196   92.1845   10.3032 F       1  UNL1       -0.2028
      7 C          64.1487   90.9906   12.6071 C.ar    1  UNL1        0.0459
      8 C          63.6512   87.7268   16.0128 C.3     1  UNL1        0.2100
      9 C          64.3356   88.3012   14.8080 C.3     1  UNL1        0.1468
     10 N          64.2777   89.7966   14.9110 N.am    1  UNL1       -0.2212
     11 C          63.5575   90.1463   16.1794 C.2     1  UNL1        0.4088
     12 O          63.2742   91.5319   16.6792 O.2     1  UNL1       -0.2258
     13 O          63.1703   88.8671   16.8604 O.3     1  UNL1       -0.4345
     14 C          63.4781   86.2681   16.3166 C.3     1  UNL1        0.1352
     15 C          64.5679   83.5901   13.5980 C.3     1  UNL1        0.0946
     16 C          63.7524   84.6115   14.3341 C.2     1  UNL1        0.2231
     17 O          62.3959   84.9977   13.8237 O.2     1  UNL1       -0.2751
     18 N          64.2936   85.2467   15.5805 N.am    1  UNL1       -0.3011
     19 H          65.1839   84.9933   15.9155 H       1  UNL1        0.1495
     20 N          66.5311   93.6946   10.9451 N.pl3   1  UNL1       -0.3010
     21 C          66.3035   95.1660   11.1273 C.3     1  UNL1        0.1231
     22 C          66.8669   96.1405   10.1358 C.3     1  UNL1        0.1636
     23 O          67.6579   95.6436    8.9622 O.3     1  UNL1       -0.3501
     24 C          67.8855   94.1721    8.7801 C.3     1  UNL1        0.1636
     25 C          67.3222   93.1977    9.7715 C.3     1  UNL1        0.1231
@<TRIPOS>BOND
     1    15    16    1
     2    16    17    2
     3    16    18   am
     4    18    14    1
     5     8    14    1
     6     8     9    1
     7     9    10    1
     8    10     1    1
     9     1     2   ar
    10     2     3   ar
    11     3     4   ar
    12     4    20    1
    13    20    21    1
    14    21    22    1
    15    22    23    1
    16    23    24    1
    17    24    25    1
    18     4     5   ar
    19     5     6    1
    20     5     7   ar
    21    10    11   am
    22    11    12    2
    23    11    13    1
    24    13     8    1
    25     7     1   ar
    26    25    20    1
    27    18    19    1
@<TRIPOS>MOLECULE
*****
 25 27 0 0 0
SMALL
GASTEIGER

@<TRIPOS>ATOM
      1 C          63.2683   89.9009   12.1055 C.ar    1  UNL1        0.0594
      2 C          62.6610   90.5129   10.8780 C.ar    1  UNL1        0.0164
      3 C          61.9605   89.6446    9.8753 C.ar    1  UNL1        0.0181
      4 C          61.8673   88.1645   10.1001 C.ar    1  UNL1        0.0759
      5 C          62.4747   87.5526   11.3275 C.ar    1  UNL1        0.1546
      6 F          62.3815   86.0724   11.5522 F       1  UNL1       -0.2028
      7 C          63.1751   88.4208   12.3302 C.ar    1  UNL1        0.0459
      8 C          65.4381   92.4279   14.0986 C.3     1  UNL1        0.2100
      9 C          65.0135   91.8015   12.8035 C.3     1  UNL1        0.1468
     10 N          63.9689   90.7692   13.1082 N.am    1  UNL1       -0.2212
     11 C          63.7477   90.7574   14.5918 C.2     1  UNL1        0.4088
     12 O          62.7873   89.8755   15.3331 O.2     1  UNL1       -0.2258
     13 O          64.6557   91.7825   15.2039 O.3     1  UNL1       -0.4345
     14 C          66.4646   93.5095   14.2602 C.3     1  UNL1        0.1352
     15 C          69.7552   92.8128   16.3666 C.3     1  UNL1        0.0946
     16 C          68.7902   92.8599   15.2191 C.2     1  UNL1        0.2231
     17 O          69.1860   92.3045   13.8831 O.2     1  UNL1       -0.2751
     18 N          67.4296   93.4624   15.4077 N.am    1  UNL1       -0.3011
     19 H          67.1698   93.8270   16.2845 H       1  UNL1        0.1495
     20 N          61.1668   87.2963    9.0973 N.pl3   1  UNL1       -0.3010
     21 C          61.9066   86.1757    8.4287 C.3     1  UNL1        0.1231
     22 C          61.2060   85.3075    7.4260 C.3     1  UNL1        0.1636
     23 O          59.7657   85.5599    7.0918 O.3     1  UNL1       -0.3501
     24 C          59.0259   86.6805    7.7604 C.3     1  UNL1        0.1636
     25 C          59.7264   87.5487    8.7631 C.3     1  UNL1        0.1231
@<TRIPOS>BOND
     1    15    16    1
     2    16    17    2
     3    16    18   am
     4    18    14    1
     5     8    14    1
     6     8     9    1
     7     9    10    1
     8    10     1    1
     9     1     2   ar
    10     2     3   ar
    11     3     4   ar
    12     4    20    1
    13    20    21    1
    14    21    22    1
    15    22    23    1
    16    23    24    1
    17    24    25    1
    18     4     5   ar
    19     5     6    1
    20     5     7   ar
    21    10    11   am
    22    11    12    2
    23    11    13    1
    24    13     8    1
    25     7     1   ar
    26    25    20    1
    27    18    19    1
@<TRIPOS>MOLECULE
*****
 25 27 0 0 0
SMALL
GASTEIGER

@<TRIPOS>ATOM
      1 C          64.2346   88.5966   14.0950 C.ar    1  UNL1        0.0594
      2 C          64.6401   87.4925   15.0259 C.ar    1  UNL1        0.0164
      3 C          64.2933   86.0704   14.6987 C.ar    1  UNL1        0.0181
      4 C          63.5410   85.7523   13.4405 C.ar    1  UNL1        0.0759
      5 C          63.1355   86.8563   12.5097 C.ar    1  UNL1        0.1546
      6 F          62.3832   86.5382   11.2516 F       1  UNL1       -0.2028
      7 C          63.4823   88.2785   12.8369 C.ar    1  UNL1        0.0459
      8 C          65.5672   92.2347   14.3279 C.3     1  UNL1        0.2100
      9 C          65.5168   90.8990   13.6473 C.3     1  UNL1        0.1468
     10 N          64.5814   90.0189   14.4222 N.am    1  UNL1       -0.2212
     11 C          64.0537   90.8107   15.5818 C.2     1  UNL1        0.4088
     12 O          63.0865   90.3194   16.6177 O.2     1  UNL1       -0.2258
     13 O          64.6629   92.1801   15.5235 O.3     1  UNL1       -0.4345
     14 C          66.3793   93.4173   13.8899 C.3     1  UNL1        0.1352
     15 C          66.3508   94.3580   10.0344 C.3     1  UNL1        0.0946
     16 C          66.6780   93.6584   11.3203 C.2     1  UNL1        0.2231
     17 O          67.6311   92.5001   11.3225 O.2     1  UNL1       -0.2751
     18 N          66.0521   94.1170   12.6040 N.am    1  UNL1       -0.3011
     19 H          65.4266   94.8772   12.6026 H       1  UNL1        0.1495
     20 N          63.1942   84.3300   13.1133 N.pl3   1  UNL1       -0.3010
     21 C          62.4945   83.4760   14.1287 C.3     1  UNL1        0.1231
     22 C          62.1477   82.0537   13.8015 C.3     1  UNL1        0.1636
     23 O          62.5006   81.4856   12.4589 O.3     1  UNL1       -0.3501
     24 C          63.2003   82.3397   11.4434 C.3     1  UNL1        0.1636
     25 C          63.5471   83.7619   11.7707 C.3     1  UNL1        0.1231
@<TRIPOS>BOND
     1    15    16    1
     2    16    17    2
     3    16    18   am
     4    18    14    1
     5     8    14    1
     6     8     9    1
     7     9    10    1
     8    10     1    1
     9     1     2   ar
    10     2     3   ar
    11     3     4   ar
    12     4    20    1
    13    20    21    1
    14    21    22    1
    15    22    23    1
    16    23    24    1
    17    24    25    1
    18     4     5   ar
    19     5     6    1
    20     5     7   ar
    21    10    11   am
    22    11    12    2
    23    11    13    1
    24    13     8    1
    25     7     1   ar
    26    25    20    1
    27    18    19    1
@<TRIPOS>MOLECULE
*****
 25 27 0 0 0
SMALL
GASTEIGER

@<TRIPOS>ATOM
      1 C          63.8924   87.8828   13.8874 C.ar    1  UNL1        0.0594
      2 C          63.2153   87.5889   12.5816 C.ar    1  UNL1        0.0164
      3 C          63.0038   86.1681   12.1496 C.ar    1  UNL1        0.0181
      4 C          63.4693   85.0413   13.0233 C.ar    1  UNL1        0.0759
      5 C          64.1464   85.3352   14.3291 C.ar    1  UNL1        0.1546
      6 F          64.6120   84.2084   15.2029 F       1  UNL1       -0.2028
      7 C          64.3579   86.7560   14.7611 C.ar    1  UNL1        0.0459
      8 C          64.9439   91.5772   14.4454 C.3     1  UNL1        0.2100
      9 C          65.0605   90.2799   13.7015 C.3     1  UNL1        0.1468
     10 N          64.1039   89.3036   14.3194 N.am    1  UNL1       -0.2212
     11 C          63.3961   89.9975   15.4452 C.2     1  UNL1        0.4088
     12 O          62.3524   89.3925   16.3366 O.2     1  UNL1       -0.2258
     13 O          63.9152   91.4027   15.5231 O.3     1  UNL1       -0.4345
     14 C          65.7197   92.8292   14.1615 C.3     1  UNL1        0.1352
     15 C          69.0237   93.8102   16.1290 C.3     1  UNL1        0.0946
     16 C          68.1145   93.2377   15.0823 C.2     1  UNL1        0.2231
     17 O          68.6910   92.5010   13.9097 O.2     1  UNL1       -0.2751
     18 N          66.6289   93.4018   15.2082 N.am    1  UNL1       -0.3011
     19 H          66.2505   93.8852   15.9778 H       1  UNL1        0.1495
     20 N          63.2578   83.6205   12.5913 N.pl3   1  UNL1       -0.3010
     21 C          63.7511   83.1629   11.2507 C.3     1  UNL1        0.1231
     22 C          63.5396   81.7420   10.8187 C.3     1  UNL1        0.1636
     23 O          62.8346   80.7789   11.7272 O.3     1  UNL1       -0.3501
     24 C          62.3412   81.2366   13.0678 C.3     1  UNL1        0.1636
     25 C          62.5528   82.6574   13.4998 C.3     1  UNL1        0.1231
@<TRIPOS>BOND
     1    15    16    1
     2    16    17    2
     3    16    18   am
     4    18    14    1
     5     8    14    1
     6     8     9    1
     7     9    10    1
     8    10     1    1
     9     1     2   ar
    10     2     3   ar
    11     3     4   ar
    12     4    20    1
    13    20    21    1
    14    21    22    1
    15    22    23    1
    16    23    24    1
    17    24    25    1
    18     4     5   ar
    19     5     6    1
    20     5     7   ar
    21    10    11   am
    22    11    12    2
    23    11    13    1
    24    13     8    1
    25     7     1   ar
    26    25    20    1
    27    18    19    1
@<TRIPOS>MOLECULE
*****
 25 27 0 0 0
SMALL
GASTEIGER

@<TRIPOS>ATOM
      1 C          64.1145   88.3978   13.9011 C.ar    1  UNL1        0.0594
      2 C          63.3563   88.0191   12.6636 C.ar    1  UNL1        0.0164
      3 C          63.0114   86.5823   12.4056 C.ar    1  UNL1        0.0181
      4 C          63.4248   85.5242   13.3851 C.ar    1  UNL1        0.0759
      5 C          64.1831   85.9029   14.6226 C.ar    1  UNL1        0.1546
      6 F          64.5965   84.8448   15.6022 F       1  UNL1       -0.2028
      7 C          64.5280   87.3397   14.8806 C.ar    1  UNL1        0.0459
      8 C          65.3845   92.0657   13.9185 C.3     1  UNL1        0.2100
      9 C          65.3001   90.7114   13.2790 C.3     1  UNL1        0.1468
     10 N          64.4594   89.8347   14.1592 N.am    1  UNL1       -0.2212
     11 C          64.0242   90.6471   15.3426 C.2     1  UNL1        0.4088
     12 O          63.1677   90.1653   16.4759 O.2     1  UNL1       -0.2258
     13 O          64.5959   92.0259   15.1939 O.3     1  UNL1       -0.4345
     14 C          66.1270   93.2514   13.3776 C.3     1  UNL1        0.1352
     15 C          67.7778   92.7428    9.8046 C.3     1  UNL1        0.0946
     16 C          66.7428   92.9300   10.8741 C.2     1  UNL1        0.2231
     17 O          65.2887   92.9830   10.5097 O.2     1  UNL1       -0.2751
     18 N          67.1619   93.0642   12.3081 N.am    1  UNL1       -0.3011
     19 H          68.1163   93.0295   12.5473 H       1  UNL1        0.1495
     20 N          63.0800   84.0873   13.1270 N.pl3   1  UNL1       -0.3010
     21 C          62.3907   83.2795   14.1864 C.3     1  UNL1        0.1231
     22 C          62.0458   81.8427   13.9284 C.3     1  UNL1        0.1636
     23 O          62.3902   81.2137   12.6109 O.3     1  UNL1       -0.3501
     24 C          63.0795   82.0216   11.5514 C.3     1  UNL1        0.1636
     25 C          63.4244   83.4584   11.8095 C.3     1  UNL1        0.1231
@<TRIPOS>BOND
     1    15    16    1
     2    16    17    2
     3    16    18   am
     4    18    14    1
     5     8    14    1
     6     8     9    1
     7     9    10    1
     8    10     1    1
     9     1     2   ar
    10     2     3   ar
    11     3     4   ar
    12     4    20    1
    13    20    21    1
    14    21    22    1
    15    22    23    1
    16    23    24    1
    17    24    25    1
    18     4     5   ar
    19     5     6    1
    20     5     7   ar
    21    10    11   am
    22    11    12    2
    23    11    13    1
    24    13     8    1
    25     7     1   ar
    26    25    20    1
    27    18    19    1
@<TRIPOS>MOLECULE
*****
 25 27 0 0 0
SMALL
GASTEIGER

@<TRIPOS>ATOM
      1 C          63.2753   89.9243   11.9468 C.ar    1  UNL1        0.0594
      2 C          62.6789   90.5112   10.7019 C.ar    1  UNL1        0.0164
      3 C          61.9464   89.6302    9.7339 C.ar    1  UNL1        0.0181
      4 C          61.8102   88.1622   10.0107 C.ar    1  UNL1        0.0759
      5 C          62.4066   87.5753   11.2556 C.ar    1  UNL1        0.1546
      6 F          62.2705   86.1074   11.5324 F       1  UNL1       -0.2028
      7 C          63.1392   88.4563   12.2236 C.ar    1  UNL1        0.0459
      8 C          65.4997   92.4844   13.8345 C.3     1  UNL1        0.2100
      9 C          65.0283   91.8464   12.5614 C.3     1  UNL1        0.1468
     10 N          64.0079   90.8053   12.9149 N.am    1  UNL1       -0.2212
     11 C          63.8487   90.7999   14.4064 C.2     1  UNL1        0.4088
     12 O          62.9290   89.9125   15.1918 O.2     1  UNL1       -0.2258
     13 O          64.7707   91.8376   14.9748 O.3     1  UNL1       -0.4345
     14 C          66.5209   93.5773   13.9474 C.3     1  UNL1        0.1352
     15 C          66.2342   96.4582   11.2329 C.3     1  UNL1        0.0946
     16 C          66.4963   95.1194   11.8566 C.2     1  UNL1        0.2231
     17 O          66.9960   93.9840   11.0134 O.2     1  UNL1       -0.2751
     18 N          66.2588   94.9161   13.3237 N.am    1  UNL1       -0.3011
     19 H          65.9308   95.6613   13.8771 H       1  UNL1        0.1495
     20 N          61.0776   87.2812    9.0426 N.pl3   1  UNL1       -0.3010
     21 C          59.6285   87.5326    8.7483 C.3     1  UNL1        0.1231
     22 C          58.8959   86.6516    7.7802 C.3     1  UNL1        0.1636
     23 O          59.6126   85.5192    7.1064 O.3     1  UNL1       -0.3501
     24 C          61.0618   85.2678    7.4006 C.3     1  UNL1        0.1636
     25 C          61.7943   86.1488    8.3687 C.3     1  UNL1        0.1231
@<TRIPOS>BOND
     1    15    16    1
     2    16    17    2
     3    16    18   am
     4    18    14    1
     5     8    14    1
     6     8     9    1
     7     9    10    1
     8    10     1    1
     9     1     2   ar
    10     2     3   ar
    11     3     4   ar
    12     4    20    1
    13    20    21    1
    14    21    22    1
    15    22    23    1
    16    23    24    1
    17    24    25    1
    18     4     5   ar
    19     5     6    1
    20     5     7   ar
    21    10    11   am
    22    11    12    2
    23    11    13    1
    24    13     8    1
    25     7     1   ar
    26    25    20    1
    27    18    19    1
@<TRIPOS>MOLECULE
*****
 25 27 0 0 0
SMALL
GASTEIGER

@<TRIPOS>ATOM
      1 C          63.7882   87.7487   13.5488 C.ar    1  UNL1        0.0594
      2 C          64.3173   86.7529   14.5380 C.ar    1  UNL1        0.0164
      3 C          64.0636   85.2883   14.3366 C.ar    1  UNL1        0.0181
      4 C          63.2808   84.8195   13.1461 C.ar    1  UNL1        0.0759
      5 C          62.7517   85.8153   12.1569 C.ar    1  UNL1        0.1546
      6 F          61.9688   85.3464   10.9664 F       1  UNL1       -0.2028
      7 C          63.0054   87.2798   12.3583 C.ar    1  UNL1        0.0459
      8 C          64.7220   91.3239   14.7369 C.3     1  UNL1        0.2100
      9 C          64.6596   89.8425   14.9637 C.3     1  UNL1        0.1468
     10 N          64.0419   89.2133   13.7502 N.am    1  UNL1       -0.2212
     11 C          63.7224   90.3059   12.7734 C.2     1  UNL1        0.4088
     12 O          63.0932   90.1258   11.4237 O.2     1  UNL1       -0.2258
     13 O          64.1427   91.6103   13.3832 O.3     1  UNL1       -0.4345
     14 C          65.2677   92.3404   15.6955 C.3     1  UNL1        0.1352
     15 C          69.1631   92.9826   15.2910 C.3     1  UNL1        0.0946
     16 C          67.6937   92.9473   14.9913 C.2     1  UNL1        0.2231
     17 O          67.1811   93.4836   13.6876 O.2     1  UNL1       -0.2751
     18 N          66.7370   92.3757   15.9952 N.am    1  UNL1       -0.3011
     19 H          67.0734   92.0237   16.8509 H       1  UNL1        0.1495
     20 N          63.0271   83.3548   12.9447 N.pl3   1  UNL1       -0.3010
     21 C          62.4188   82.5405   14.0477 C.3     1  UNL1        0.1231
     22 C          62.1651   81.0758   13.8464 C.3     1  UNL1        0.1636
     23 O          62.5197   80.4256   12.5420 O.3     1  UNL1       -0.3501
     24 C          63.1280   81.2401   11.4389 C.3     1  UNL1        0.1636
     25 C          63.3817   82.7046   11.6403 C.3     1  UNL1        0.1231
@<TRIPOS>BOND
     1    15    16    1
     2    16    17    2
     3    16    18   am
     4    18    14    1
     5     8    14    1
     6     8     9    1
     7     9    10    1
     8    10     1    1
     9     1     2   ar
    10     2     3   ar
    11     3     4   ar
    12     4    20    1
    13    20    21    1
    14    21    22    1
    15    22    23    1
    16    23    24    1
    17    24    25    1
    18     4     5   ar
    19     5     6    1
    20     5     7   ar
    21    10    11   am
    22    11    12    2
    23    11    13    1
    24    13     8    1
    25     7     1   ar
    26    25    20    1
    27    18    19    1
@<TRIPOS>MOLECULE
*****
 25 27 0 0 0
SMALL
GASTEIGER

@<TRIPOS>ATOM
      1 C          63.5100   87.8084   13.1171 C.ar    1  UNL1        0.0594
      2 C          64.0990   86.9233   14.1752 C.ar    1  UNL1        0.0164
      3 C          63.8785   85.4406   14.1208 C.ar    1  UNL1        0.0181
      4 C          63.0691   84.8430   13.0082 C.ar    1  UNL1        0.0759
      5 C          62.4802   85.7281   11.9501 C.ar    1  UNL1        0.1546
      6 F          61.6708   85.1306   10.8375 F       1  UNL1       -0.2028
      7 C          62.7006   87.2108   12.0045 C.ar    1  UNL1        0.0459
      8 C          64.3590   91.5552   12.5634 C.3     1  UNL1        0.2100
      9 C          64.3282   90.1341   12.0842 C.3     1  UNL1        0.1468
     10 N          63.7305   89.2912   13.1715 N.am    1  UNL1       -0.2212
     11 C          63.3919   90.1912   14.3227 C.2     1  UNL1        0.4088
     12 O          62.7734   89.7667   15.6216 O.2     1  UNL1       -0.2258
     13 O          63.7803   91.5905   13.9469 O.3     1  UNL1       -0.4345
     14 C          64.8775   92.7340   11.7942 C.3     1  UNL1        0.1352
     15 C          67.8197   93.3665    9.2071 C.3     1  UNL1        0.0946
     16 C          66.8612   93.5743   10.3420 C.2     1  UNL1        0.2231
     17 O          66.9277   94.8301   11.1596 O.2     1  UNL1       -0.2751
     18 N          65.8361   92.5262   10.6593 N.am    1  UNL1       -0.3011
     19 H          65.7924   91.7020   10.1227 H       1  UNL1        0.1495
     20 N          62.8487   83.3603   12.9538 N.pl3   1  UNL1       -0.3010
     21 C          62.2349   82.6499   14.1236 C.3     1  UNL1        0.1231
     22 C          62.0145   81.1671   14.0692 C.3     1  UNL1        0.1636
     23 O          62.4079   80.3948   12.8449 O.3     1  UNL1       -0.3501
     24 C          63.0217   81.1053   11.6751 C.3     1  UNL1        0.1636
     25 C          63.2421   82.5880   11.7295 C.3     1  UNL1        0.1231
@<TRIPOS>BOND
     1    15    16    1
     2    16    17    2
     3    16    18   am
     4    18    14    1
     5     8    14    1
     6     8     9    1
     7     9    10    1
     8    10     1    1
     9     1     2   ar
    10     2     3   ar
    11     3     4   ar
    12     4    20    1
    13    20    21    1
    14    21    22    1
    15    22    23    1
    16    23    24    1
    17    24    25    1
    18     4     5   ar
    19     5     6    1
    20     5     7   ar
    21    10    11   am
    22    11    12    2
    23    11    13    1
    24    13     8    1
    25     7     1   ar
    26    25    20    1
    27    18    19    1
