@<TRIPOS>MOLECULE
*****
 31 35 0 0 0
SMALL
GASTEIGER

@<TRIPOS>ATOM
      1 O          60.4967   89.7523   13.4054 O.2     1  UNL1       -0.2729
      2 C          60.7910   89.1014   12.0864 C.2     1  UNL1        0.2474
      3 N          62.1778   89.1536   11.5171 N.am    1  UNL1       -0.2665
      4 H          62.3709   88.7264   10.6514 H       1  UNL1        0.1564
      5 C          63.2703   89.8567   12.2669 C.ar    1  UNL1        0.1560
      6 C          63.8174   89.2600   13.5297 C.ar    1  UNL1        0.0379
      7 C          64.9099   89.9631   14.2795 C.ar    1  UNL1        0.0239
      8 C          65.4553   91.2628   13.7663 C.ar    1  UNL1        0.1045
      9 N          64.9082   91.8594   12.5035 N.ar    1  UNL1       -0.1467
     10 N          63.8157   91.1563   11.7538 N.ar    1  UNL1       -0.1328
     11 C          66.5478   91.9659   14.5160 C.ar    1  UNL1        0.0386
     12 C          67.9451   91.9764   13.9705 C.ar    1  UNL1        0.0047
     13 C          69.0377   92.6795   14.7202 C.ar    1  UNL1        0.0207
     14 C          68.7329   93.3721   16.0155 C.ar    1  UNL1        0.0989
     15 N          67.3356   93.3615   16.5609 N.ar    1  UNL1       -0.2423
     16 C          66.2431   92.6585   15.8112 C.ar    1  UNL1        0.1004
     17 C          59.6985   88.3983   11.3367 C.3     1  UNL1        0.1775
     18 N          59.9489   87.8903    9.9476 N.pl3   1  UNL1       -0.2964
     19 C          59.2354   88.5096    8.7826 C.3     1  UNL1        0.0917
     20 C          59.4858   88.0016    7.3937 C.3     1  UNL1        0.0263
     21 C          60.4497   86.8743    7.1698 C.3     1  UNL1        0.0342
     22 C          61.1631   86.2549    8.3348 C.2     1  UNL1        0.0496
     23 C          60.9127   86.7629    9.7238 C.2     1  UNL1        0.1032
     24 C          61.7563   85.9608   10.6699 C.2     1  UNL1        0.2682
     25 O          61.8174   86.1324   12.1588 O.2     1  UNL1       -0.2681
     26 N          62.5280   84.9571    9.8656 N.am    1  UNL1       -0.2238
     27 C          62.1614   85.1389    8.4224 C.2     1  UNL1        0.2523
     28 O          62.6988   84.3441    7.2694 O.2     1  UNL1       -0.2698
     29 C          63.4965   83.9486   10.4090 C.3     1  UNL1        0.0831
     30 C          64.3143   82.7043   10.2281 C.3     1  UNL1        0.0220
     31 C          64.3559   83.4462   11.5310 C.3     1  UNL1        0.0220
@<TRIPOS>BOND
     1     1     2    2
     2     2    17    1
     3    17    18    1
     4    18    19    1
     5    19    20    1
     6    20    21    1
     7    21    22    1
     8    22    23    2
     9    23    24    1
    10    24    25    2
    11    24    26   am
    12    26    29    1
    13    29    30    1
    14    30    31    1
    15    26    27   am
    16    27    28    2
    17     2     3   am
    18     3     5    1
    19     5     6   ar
    20     6     7   ar
    21     7     8   ar
    22     8    11    1
    23    11    12   ar
    24    12    13   ar
    25    13    14   ar
    26    14    15   ar
    27    15    16   ar
    28     8     9   ar
    29     9    10   ar
    30    23    18    1
    31    31    29    1
    32    10     5   ar
    33    27    22    1
    34    16    11   ar
    35     3     4    1
@<TRIPOS>MOLECULE
*****
 31 35 0 0 0
SMALL
GASTEIGER

@<TRIPOS>ATOM
      1 O          62.2936   88.6678   16.5725 O.2     1  UNL1       -0.2729
      2 C          63.5426   89.2795   16.0103 C.2     1  UNL1        0.2474
      3 N          64.4268   88.4781   15.1016 N.am    1  UNL1       -0.2665
      4 H          65.2465   88.8795   14.7325 H       1  UNL1        0.1564
      5 C          64.0622   87.0649   14.7551 C.ar    1  UNL1        0.1560
      6 C          64.2103   85.9794   15.7797 C.ar    1  UNL1        0.0379
      7 C          63.8456   84.5662   15.4332 C.ar    1  UNL1        0.0239
      8 C          63.3329   84.2386   14.0621 C.ar    1  UNL1        0.1045
      9 N          63.1848   85.3241   13.0375 N.ar    1  UNL1       -0.1467
     10 N          63.5495   86.7373   13.3840 N.ar    1  UNL1       -0.1328
     11 C          62.9683   82.8255   13.7155 C.ar    1  UNL1        0.0386
     12 C          61.9038   82.1127   14.4959 C.ar    1  UNL1        0.0047
     13 C          61.5391   80.6996   14.1494 C.ar    1  UNL1        0.0207
     14 C          62.2390   79.9992   13.0225 C.ar    1  UNL1        0.0989
     15 N          63.3035   80.7119   12.2423 N.ar    1  UNL1       -0.2423
     16 C          63.6681   82.1251   12.5888 C.ar    1  UNL1        0.1004
     17 C          63.9072   90.6926   16.3568 C.3     1  UNL1        0.1775
     18 N          64.7822   91.4890   15.4347 N.pl3   1  UNL1       -0.2964
     19 C          65.9216   92.2918   15.9891 C.3     1  UNL1        0.0917
     20 C          66.7965   93.0881   15.0671 C.3     1  UNL1        0.0263
     21 C          66.5321   93.0817   13.5906 C.3     1  UNL1        0.0342
     22 C          65.3928   92.2790   13.0361 C.2     1  UNL1        0.0496
     23 C          64.5178   91.4826   13.9582 C.2     1  UNL1        0.1032
     24 C          63.4766   90.7922   13.1280 C.2     1  UNL1        0.2682
     25 O          62.3940   89.8904   13.6426 O.2     1  UNL1       -0.2681
     26 N          63.7081   91.1619   11.6928 N.am    1  UNL1       -0.2238
     27 C          64.8923   92.0808   11.6361 C.2     1  UNL1        0.2523
     28 O          65.4740   92.6938   10.3968 O.2     1  UNL1       -0.2698
     29 C          62.8976   90.6947   10.5202 C.3     1  UNL1        0.0831
     30 C          62.3293   90.9393    9.1538 C.3     1  UNL1        0.0220
     31 C          62.0621   89.6409    9.8557 C.3     1  UNL1        0.0220
@<TRIPOS>BOND
     1     1     2    2
     2     2    17    1
     3    17    18    1
     4    18    19    1
     5    19    20    1
     6    20    21    1
     7    21    22    1
     8    22    23    2
     9    23    24    1
    10    24    25    2
    11    24    26   am
    12    26    29    1
    13    29    30    1
    14    30    31    1
    15    26    27   am
    16    27    28    2
    17     2     3   am
    18     3     5    1
    19     5     6   ar
    20     6     7   ar
    21     7     8   ar
    22     8    11    1
    23    11    12   ar
    24    12    13   ar
    25    13    14   ar
    26    14    15   ar
    27    15    16   ar
    28     8     9   ar
    29     9    10   ar
    30    23    18    1
    31    31    29    1
    32    10     5   ar
    33    27    22    1
    34    16    11   ar
    35     3     4    1
@<TRIPOS>MOLECULE
*****
 31 35 0 0 0
SMALL
GASTEIGER

@<TRIPOS>ATOM
      1 O          60.9199   88.0291   11.5091 O.2     1  UNL1       -0.2729
      2 C          62.1476   88.6039   12.1513 C.2     1  UNL1        0.2474
      3 N          63.2717   87.7001   12.5632 N.am    1  UNL1       -0.2665
      4 H          64.0774   88.0773   12.9847 H       1  UNL1        0.1564
      5 C          63.1681   86.2215   12.3327 C.ar    1  UNL1        0.1560
      6 C          62.7533   85.6991   10.9892 C.ar    1  UNL1        0.0379
      7 C          62.6497   84.2205   10.7588 C.ar    1  UNL1        0.0239
      8 C          62.9610   83.2644   11.8719 C.ar    1  UNL1        0.1045
      9 N          63.3757   83.7868   13.2154 N.ar    1  UNL1       -0.1467
     10 N          63.4793   85.2654   13.4458 N.ar    1  UNL1       -0.1328
     11 C          62.8574   81.7858   11.6415 C.ar    1  UNL1        0.0386
     12 C          63.0491   81.2263   10.2629 C.ar    1  UNL1        0.0047
     13 C          62.9455   79.7477   10.0325 C.ar    1  UNL1        0.0207
     14 C          62.6502   78.8286   11.1807 C.ar    1  UNL1        0.0989
     15 N          62.4586   79.3881   12.5591 N.ar    1  UNL1       -0.2423
     16 C          62.5621   80.8667   12.7895 C.ar    1  UNL1        0.1004
     17 C          62.2512   90.0824   12.3818 C.3     1  UNL1        0.1775
     18 N          63.2639   90.6218   13.3481 N.pl3   1  UNL1       -0.2964
     19 C          63.1510   90.3019   14.8092 C.3     1  UNL1        0.0917
     20 C          64.1636   90.8412   15.7754 C.3     1  UNL1        0.0263
     21 C          65.2892   91.7004   15.2805 C.3     1  UNL1        0.0342
     22 C          65.4021   92.0203   13.8194 C.2     1  UNL1        0.0496
     23 C          64.3894   91.4810   12.8532 C.2     1  UNL1        0.1032
     24 C          64.7565   91.9617   11.4805 C.2     1  UNL1        0.2682
     25 O          64.0144   91.6592   10.2126 O.2     1  UNL1       -0.2681
     26 N          65.9960   92.7982   11.5984 N.am    1  UNL1       -0.2238
     27 C          66.3950   92.8344   13.0439 C.2     1  UNL1        0.2523
     28 O          67.5790   93.5577   13.6139 O.2     1  UNL1       -0.2698
     29 C          66.7111   93.4790   10.4691 C.3     1  UNL1        0.0831
     30 C          67.6912   93.4299    9.3346 C.3     1  UNL1        0.0220
     31 C          66.9695   94.7071    9.6475 C.3     1  UNL1        0.0220
@<TRIPOS>BOND
     1     1     2    2
     2     2    17    1
     3    17    18    1
     4    18    19    1
     5    19    20    1
     6    20    21    1
     7    21    22    1
     8    22    23    2
     9    23    24    1
    10    24    25    2
    11    24    26   am
    12    26    29    1
    13    29    30    1
    14    30    31    1
    15    26    27   am
    16    27    28    2
    17     2     3   am
    18     3     5    1
    19     5     6   ar
    20     6     7   ar
    21     7     8   ar
    22     8    11    1
    23    11    12   ar
    24    12    13   ar
    25    13    14   ar
    26    14    15   ar
    27    15    16   ar
    28     8     9   ar
    29     9    10   ar
    30    23    18    1
    31    31    29    1
    32    10     5   ar
    33    27    22    1
    34    16    11   ar
    35     3     4    1
@<TRIPOS>MOLECULE
*****
 31 35 0 0 0
SMALL
GASTEIGER

@<TRIPOS>ATOM
      1 O          61.5840   87.7979   11.6419 O.2     1  UNL1       -0.2729
      2 C          62.6007   88.1820   12.6758 C.2     1  UNL1        0.2474
      3 N          63.4856   87.1341   13.2830 N.am    1  UNL1       -0.2665
      4 H          64.1529   87.3862   13.9616 H       1  UNL1        0.1564
      5 C          63.3539   85.7021   12.8565 C.ar    1  UNL1        0.1560
      6 C          62.7766   85.3700   11.5124 C.ar    1  UNL1        0.0379
      7 C          62.6449   83.9379   11.0858 C.ar    1  UNL1        0.0239
      8 C          63.0906   82.8380   12.0033 C.ar    1  UNL1        0.1045
      9 N          63.6678   83.1702   13.3473 N.ar    1  UNL1       -0.1467
     10 N          63.7995   84.6022   13.7739 N.ar    1  UNL1       -0.1328
     11 C          62.9589   81.4060   11.5767 C.ar    1  UNL1        0.0386
     12 C          63.1353   81.0339   10.1343 C.ar    1  UNL1        0.0047
     13 C          63.0036   79.6018    9.7077 C.ar    1  UNL1        0.0207
     14 C          62.6955   78.5420   10.7236 C.ar    1  UNL1        0.0989
     15 N          62.5191   78.9142   12.1659 N.ar    1  UNL1       -0.2423
     16 C          62.6508   80.3462   12.5925 C.ar    1  UNL1        0.1004
     17 C          62.7324   89.6140   13.1023 C.3     1  UNL1        0.1775
     18 N          63.3748   90.6134   12.1865 N.pl3   1  UNL1       -0.2964
     19 C          62.8386   90.8131   10.8000 C.3     1  UNL1        0.0917
     20 C          63.4810   91.8124    9.8842 C.3     1  UNL1        0.0263
     21 C          64.6596   92.6119   10.3549 C.3     1  UNL1        0.0342
     22 C          65.1958   92.4122   11.7415 C.2     1  UNL1        0.0496
     23 C          64.5534   91.4129   12.6572 C.2     1  UNL1        0.1032
     24 C          65.2965   91.4333   13.9601 C.2     1  UNL1        0.2682
     25 O          64.9915   90.5899   15.1625 O.2     1  UNL1       -0.2681
     26 N          66.3982   92.4453   13.8495 N.am    1  UNL1       -0.2238
     27 C          66.3359   93.0502   12.4783 C.2     1  UNL1        0.2523
     28 O          67.2528   94.1076   11.9387 O.2     1  UNL1       -0.2698
     29 C          67.3883   92.7916   14.9219 C.3     1  UNL1        0.0831
     30 C          68.3585   92.3617   15.9820 C.3     1  UNL1        0.0220
     31 C          68.1330   93.8211   15.7190 C.3     1  UNL1        0.0220
@<TRIPOS>BOND
     1     1     2    2
     2     2    17    1
     3    17    18    1
     4    18    19    1
     5    19    20    1
     6    20    21    1
     7    21    22    1
     8    22    23    2
     9    23    24    1
    10    24    25    2
    11    24    26   am
    12    26    29    1
    13    29    30    1
    14    30    31    1
    15    26    27   am
    16    27    28    2
    17     2     3   am
    18     3     5    1
    19     5     6   ar
    20     6     7   ar
    21     7     8   ar
    22     8    11    1
    23    11    12   ar
    24    12    13   ar
    25    13    14   ar
    26    14    15   ar
    27    15    16   ar
    28     8     9   ar
    29     9    10   ar
    30    23    18    1
    31    31    29    1
    32    10     5   ar
    33    27    22    1
    34    16    11   ar
    35     3     4    1
@<TRIPOS>MOLECULE
*****
 31 35 0 0 0
SMALL
GASTEIGER

@<TRIPOS>ATOM
      1 O          58.0901   90.0678    5.9664 O.2     1  UNL1       -0.2729
      2 C          59.4147   89.5990    6.4916 C.2     1  UNL1        0.2474
      3 N          60.6864   90.1551    5.9230 N.am    1  UNL1       -0.2665
      4 H          61.5557   89.8474    6.2677 H       1  UNL1        0.1564
      5 C          60.6336   91.1802    4.8292 C.ar    1  UNL1        0.1560
      6 C          61.8084   91.3620    3.9144 C.ar    1  UNL1        0.0379
      7 C          61.7557   92.3870    2.8205 C.ar    1  UNL1        0.0239
      8 C          60.5281   93.2303    2.6415 C.ar    1  UNL1        0.1045
      9 N          59.3534   93.0486    3.5564 N.ar    1  UNL1       -0.1467
     10 N          59.4061   92.0235    4.6502 N.ar    1  UNL1       -0.1328
     11 C          60.4754   94.2554    1.5477 C.ar    1  UNL1        0.0386
     12 C          61.5814   95.2588    1.4062 C.ar    1  UNL1        0.0047
     13 C          61.5286   96.2839    0.3124 C.ar    1  UNL1        0.0207
     14 C          60.3698   96.3056   -0.6399 C.ar    1  UNL1        0.0989
     15 N          59.2639   95.3022   -0.4984 N.ar    1  UNL1       -0.2423
     16 C          59.3166   94.2771    0.5955 C.ar    1  UNL1        0.1004
     17 C          59.4674   88.5739    7.5855 C.3     1  UNL1        0.1775
     18 N          60.0908   88.9175    8.9059 N.pl3   1  UNL1       -0.2964
     19 C          59.8378   90.2585    9.5284 C.3     1  UNL1        0.0917
     20 C          60.4611   90.6020   10.8488 C.3     1  UNL1        0.0263
     21 C          61.3375   89.6045   11.5466 C.3     1  UNL1        0.0342
     22 C          61.5906   88.2635   10.9240 C.2     1  UNL1        0.0496
     23 C          60.9672   87.9200    9.6037 C.2     1  UNL1        0.1032
     24 C          61.3947   86.5297    9.2369 C.2     1  UNL1        0.2682
     25 O          61.0034   85.7858    7.9946 O.2     1  UNL1       -0.2681
     26 N          62.2823   86.0140   10.3306 N.am    1  UNL1       -0.2238
     27 C          62.4034   87.0856   11.3733 C.2     1  UNL1        0.2523
     28 O          63.1977   86.9951   12.6425 O.2     1  UNL1       -0.2698
     29 C          62.9345   84.6638   10.3741 C.3     1  UNL1        0.0831
     30 C          63.1863   83.3650   11.0809 C.3     1  UNL1        0.0220
     31 C          63.8121   83.6242    9.7426 C.3     1  UNL1        0.0220
@<TRIPOS>BOND
     1     1     2    2
     2     2    17    1
     3    17    18    1
     4    18    19    1
     5    19    20    1
     6    20    21    1
     7    21    22    1
     8    22    23    2
     9    23    24    1
    10    24    25    2
    11    24    26   am
    12    26    29    1
    13    29    30    1
    14    30    31    1
    15    26    27   am
    16    27    28    2
    17     2     3   am
    18     3     5    1
    19     5     6   ar
    20     6     7   ar
    21     7     8   ar
    22     8    11    1
    23    11    12   ar
    24    12    13   ar
    25    13    14   ar
    26    14    15   ar
    27    15    16   ar
    28     8     9   ar
    29     9    10   ar
    30    23    18    1
    31    31    29    1
    32    10     5   ar
    33    27    22    1
    34    16    11   ar
    35     3     4    1
@<TRIPOS>MOLECULE
*****
 31 35 0 0 0
SMALL
GASTEIGER

@<TRIPOS>ATOM
      1 O          61.9243   89.5501   13.2120 O.2     1  UNL1       -0.2729
      2 C          63.2250   89.9290   13.8559 C.2     1  UNL1        0.2474
      3 N          64.2149   88.8656   14.2291 N.am    1  UNL1       -0.2665
      4 H          65.0686   89.1143   14.6517 H       1  UNL1        0.1564
      5 C          63.9042   87.4234   13.9585 C.ar    1  UNL1        0.1560
      6 C          64.2984   86.3718   14.9529 C.ar    1  UNL1        0.0379
      7 C          63.9876   84.9295   14.6823 C.ar    1  UNL1        0.0239
      8 C          63.2826   84.5388   13.4172 C.ar    1  UNL1        0.1045
      9 N          62.8884   85.5903   12.4228 N.ar    1  UNL1       -0.1467
     10 N          63.1992   87.0326   12.6934 N.ar    1  UNL1       -0.1328
     11 C          62.9718   83.0965   13.1465 C.ar    1  UNL1        0.0386
     12 C          62.2348   82.2834   14.1692 C.ar    1  UNL1        0.0047
     13 C          61.9240   80.8411   13.8985 C.ar    1  UNL1        0.0207
     14 C          62.3503   80.2120   12.6052 C.ar    1  UNL1        0.0989
     15 N          63.0873   81.0251   11.5827 N.ar    1  UNL1       -0.2423
     16 C          63.3981   82.4673   11.8533 C.ar    1  UNL1        0.1004
     17 C          63.5358   91.3713   14.1266 C.3     1  UNL1        0.1775
     18 N          64.8690   91.7572   14.6957 N.pl3   1  UNL1       -0.2964
     19 C          65.0267   91.9454   16.1754 C.3     1  UNL1        0.0917
     20 C          66.3598   92.3313   16.7444 C.3     1  UNL1        0.0263
     21 C          67.5352   92.5291   15.8337 C.3     1  UNL1        0.0342
     22 C          67.3774   92.3409   14.3540 C.2     1  UNL1        0.0496
     23 C          66.0443   91.9550   13.7850 C.2     1  UNL1        0.1032
     24 C          66.1911   91.8410   12.2965 C.2     1  UNL1        0.2682
     25 O          65.1048   91.4757   11.3288 O.2     1  UNL1       -0.2681
     26 N          67.6149   92.1565   11.9456 N.am    1  UNL1       -0.2238
     27 C          68.3481   92.4655   13.2172 C.2     1  UNL1        0.2523
     28 O          69.7975   92.8342   13.3320 O.2     1  UNL1       -0.2698
     29 C          68.2025   92.1620   10.5654 C.3     1  UNL1        0.0831
     30 C          68.2715   91.5897    9.1807 C.3     1  UNL1        0.0220
     31 C          69.1512   92.7440    9.5598 C.3     1  UNL1        0.0220
@<TRIPOS>BOND
     1     1     2    2
     2     2    17    1
     3    17    18    1
     4    18    19    1
     5    19    20    1
     6    20    21    1
     7    21    22    1
     8    22    23    2
     9    23    24    1
    10    24    25    2
    11    24    26   am
    12    26    29    1
    13    29    30    1
    14    30    31    1
    15    26    27   am
    16    27    28    2
    17     2     3   am
    18     3     5    1
    19     5     6   ar
    20     6     7   ar
    21     7     8   ar
    22     8    11    1
    23    11    12   ar
    24    12    13   ar
    25    13    14   ar
    26    14    15   ar
    27    15    16   ar
    28     8     9   ar
    29     9    10   ar
    30    23    18    1
    31    31    29    1
    32    10     5   ar
    33    27    22    1
    34    16    11   ar
    35     3     4    1
@<TRIPOS>MOLECULE
*****
 31 35 0 0 0
SMALL
GASTEIGER

@<TRIPOS>ATOM
      1 O          45.9197   80.8908   14.6394 O.2     1  UNL1       -0.2729
      2 C          44.6596   80.3556   15.2525 C.2     1  UNL1        0.2474
      3 N          43.6330   79.6828   14.3904 N.am    1  UNL1       -0.2665
      4 H          42.8060   79.3316   14.7928 H       1  UNL1        0.1564
      5 C          43.8664   79.5451   12.9151 C.ar    1  UNL1        0.1560
      6 C          44.0043   78.1833   12.3014 C.ar    1  UNL1        0.0379
      7 C          44.2377   78.0456   10.8261 C.ar    1  UNL1        0.0239
      8 C          44.3333   79.2697    9.9644 C.ar    1  UNL1        0.1045
      9 N          44.1955   80.6315   10.5781 N.ar    1  UNL1       -0.1467
     10 N          43.9620   80.7692   12.0534 N.ar    1  UNL1       -0.1328
     11 C          44.5667   79.1320    8.4891 C.ar    1  UNL1        0.0386
     12 C          45.0920   77.8430    7.9300 C.ar    1  UNL1        0.0047
     13 C          45.3254   77.7053    6.4547 C.ar    1  UNL1        0.0207
     14 C          45.0335   78.8567    5.5385 C.ar    1  UNL1        0.0989
     15 N          44.5083   80.1456    6.0976 N.ar    1  UNL1       -0.2423
     16 C          44.2749   80.2833    7.5729 C.ar    1  UNL1        0.1004
     17 C          44.4262   80.4933   16.7279 C.3     1  UNL1        0.1775
     18 N          45.4942   80.0825   17.6977 N.pl3   1  UNL1       -0.2964
     19 C          46.3151   81.1260   18.3957 C.3     1  UNL1        0.0917
     20 C          47.3831   80.7151   19.3655 C.3     1  UNL1        0.0263
     21 C          47.6301   79.2608   19.6374 C.3     1  UNL1        0.0342
     22 C          46.8092   78.2173   18.9394 C.2     1  UNL1        0.0496
     23 C          45.7413   78.6282   17.9696 C.2     1  UNL1        0.1032
     24 C          45.0960   77.3836   17.4358 C.2     1  UNL1        0.2682
     25 O          43.9779   77.3287   16.4375 O.2     1  UNL1       -0.2681
     26 N          45.7653   76.2036   18.0758 N.am    1  UNL1       -0.2238
     27 C          46.8241   76.7188   19.0051 C.2     1  UNL1        0.2523
     28 O          47.7374   75.8825   19.8514 O.2     1  UNL1       -0.2698
     29 C          45.4340   74.7614   17.8298 C.3     1  UNL1        0.0831
     30 C          45.1852   73.3780   18.3536 C.3     1  UNL1        0.0220
     31 C          45.1088   73.6469   16.8799 C.3     1  UNL1        0.0220
@<TRIPOS>BOND
     1     1     2    2
     2     2    17    1
     3    17    18    1
     4    18    19    1
     5    19    20    1
     6    20    21    1
     7    21    22    1
     8    22    23    2
     9    23    24    1
    10    24    25    2
    11    24    26   am
    12    26    29    1
    13    29    30    1
    14    30    31    1
    15    26    27   am
    16    27    28    2
    17     2     3   am
    18     3     5    1
    19     5     6   ar
    20     6     7   ar
    21     7     8   ar
    22     8    11    1
    23    11    12   ar
    24    12    13   ar
    25    13    14   ar
    26    14    15   ar
    27    15    16   ar
    28     8     9   ar
    29     9    10   ar
    30    23    18    1
    31    31    29    1
    32    10     5   ar
    33    27    22    1
    34    16    11   ar
    35     3     4    1
