@<TRIPOS>MOLECULE
*****
 29 31 0 0 0
SMALL
GASTEIGER

@<TRIPOS>ATOM
      1 C          63.5128   85.6180   12.8879 C.ar    1  UNL1       -0.0004
      2 C          64.1958   85.5574   14.2220 C.ar    1  UNL1       -0.0024
      3 C          64.5488   86.8249   14.9420 C.ar    1  UNL1       -0.0002
      4 C          64.2190   88.1531   14.3280 C.ar    1  UNL1        0.0030
      5 C          64.5721   89.4208   15.0482 C.ar    1  UNL1        0.0369
      6 C          64.2422   90.7490   14.4342 C.ar    1  UNL1        0.1386
      7 C          63.5593   90.8096   13.1000 C.ar    1  UNL1        0.0369
      8 C          63.2062   89.5420   12.3799 C.ar    1  UNL1        0.0031
      9 C          63.5360   88.2138   12.9939 C.ar    1  UNL1       -0.0001
     10 C          63.1830   86.9462   12.2739 C.ar    1  UNL1       -0.0024
     11 C          63.1597   84.3504   12.1677 C.3     1  UNL1        0.1240
     12 N          62.6555   83.1660   12.9377 N.ar    1  UNL1       -0.3045
     13 C          62.3872   81.8001   12.3786 C.ar    1  UNL1        0.0983
     14 C          61.8969   80.9294   13.4973 C.ar    1  UNL1        0.1193
     15 N          61.8621   81.7571   14.7478 N.ar    1  UNL1       -0.2223
     16 C          62.3310   83.1393   14.4019 C.ar    1  UNL1        0.1788
     17 C          64.2713   83.2854   10.0748 C.3     1  UNL1        0.0197
     18 C          63.3108   84.2673   10.6777 C.3     1  UNL1        0.0827
     19 N          62.5015   85.1661    9.7905 N.3     1  UNL1       -0.2696
     20 C          62.9806   85.4808    8.4042 C.3     1  UNL1        0.0897
     21 C          61.2131   85.7502   10.2894 C.3     1  UNL1        0.0897
     22 O          64.5953   92.0165   15.1543 O.3     1  UNL1       -0.4751
     23 C          66.0204   92.4828   15.1971 C.3     1  UNL1        0.2103
     24 C          66.8853   92.3644   13.9773 C.3     1  UNL1        0.0724
     25 C          67.7054   91.3109   14.6610 C.3     1  UNL1        0.0093
     26 C          66.0651   93.4179   13.2936 C.3     1  UNL1        0.0093
     27 C          67.7501   92.2460   12.7575 C.2     1  UNL1        0.0532
     28 O          69.1148   91.6321   12.8623 O.co2   1  UNL1       -0.5491
     29 O          67.2504   92.7416   11.4328 O.co2   1  UNL1       -0.5491
@<TRIPOS>UNITY_ATOM_ATTR
28 1
charge -1
@<TRIPOS>BOND
     1    17    18    1
     2    18    11    1
     3    11     1    1
     4     1     2   ar
     5     2     3   ar
     6     3     4   ar
     7     4     5   ar
     8     5     6   ar
     9     6    22    1
    10    22    23    1
    11    23    24    1
    12    24    25    1
    13    24    26    1
    14    24    27    1
    15    27    28   ar
    16    27    29   ar
    17     6     7   ar
    18     7     8   ar
    19     8     9   ar
    20     9    10   ar
    21    11    12    1
    22    12    13   ar
    23    13    14   ar
    24    14    15   ar
    25    15    16   ar
    26    18    19    1
    27    19    20    1
    28    19    21    1
    29    10     1   ar
    30    16    12   ar
    31     9     4   ar
@<TRIPOS>MOLECULE
*****
 29 31 0 0 0
SMALL
GASTEIGER

@<TRIPOS>ATOM
      1 C          65.1780   92.2935   11.6830 C.ar    1  UNL1       -0.0004
      2 C          64.4201   92.5389   10.4121 C.ar    1  UNL1       -0.0024
      3 C          63.3656   91.5687    9.9685 C.ar    1  UNL1       -0.0002
      4 C          63.0690   90.3532   10.7958 C.ar    1  UNL1        0.0030
      5 C          62.0145   89.3830   10.3521 C.ar    1  UNL1        0.0369
      6 C          61.7179   88.1674   11.1794 C.ar    1  UNL1        0.1386
      7 C          62.4759   87.9220   12.4504 C.ar    1  UNL1        0.0369
      8 C          63.5304   88.8922   12.8940 C.ar    1  UNL1        0.0031
      9 C          63.8270   90.1077   12.0667 C.ar    1  UNL1       -0.0001
     10 C          64.8814   91.0779   12.5103 C.ar    1  UNL1       -0.0024
     11 C          66.2325   93.2637   12.1267 C.3     1  UNL1        0.1240
     12 N          66.9222   93.0708   13.4447 N.ar    1  UNL1       -0.3045
     13 C          68.0174   92.0867   13.7310 C.ar    1  UNL1        0.0983
     14 C          68.4099   92.2359   15.1711 C.ar    1  UNL1        0.1193
     15 N          67.5573   93.3122   15.7748 N.ar    1  UNL1       -0.2223
     16 C          66.6379   93.8282   14.7078 C.ar    1  UNL1        0.1788
     17 C          66.1108   95.8037   11.5944 C.3     1  UNL1        0.0197
     18 C          66.5973   94.4266   11.2524 C.3     1  UNL1        0.0827
     19 N          67.4486   94.2125   10.0360 N.3     1  UNL1       -0.2696
     20 C          68.1358   92.8961    9.8238 C.3     1  UNL1        0.0897
     21 C          67.6126   95.3147    9.0319 C.3     1  UNL1        0.0897
     22 O          60.6635   87.1972   10.7358 O.3     1  UNL1       -0.4751
     23 C          60.2136   87.1809    9.3049 C.3     1  UNL1        0.2103
     24 C          60.8132   86.2001    8.3414 C.3     1  UNL1        0.0724
     25 C          62.0241   86.0789    9.2183 C.3     1  UNL1        0.0093
     26 C          59.6024   86.3213    7.4644 C.3     1  UNL1        0.0093
     27 C          61.4129   85.2193    7.3779 C.2     1  UNL1        0.0532
     28 O          60.5576   84.5905    6.3180 O.co2   1  UNL1       -0.5491
     29 O          62.8678   84.8673    7.4741 O.co2   1  UNL1       -0.5491
@<TRIPOS>UNITY_ATOM_ATTR
28 1
charge -1
@<TRIPOS>BOND
     1    17    18    1
     2    18    11    1
     3    11     1    1
     4     1     2   ar
     5     2     3   ar
     6     3     4   ar
     7     4     5   ar
     8     5     6   ar
     9     6    22    1
    10    22    23    1
    11    23    24    1
    12    24    25    1
    13    24    26    1
    14    24    27    1
    15    27    28   ar
    16    27    29   ar
    17     6     7   ar
    18     7     8   ar
    19     8     9   ar
    20     9    10   ar
    21    11    12    1
    22    12    13   ar
    23    13    14   ar
    24    14    15   ar
    25    15    16   ar
    26    18    19    1
    27    19    20    1
    28    19    21    1
    29    10     1   ar
    30    16    12   ar
    31     9     4   ar
@<TRIPOS>MOLECULE
*****
 29 31 0 0 0
SMALL
GASTEIGER

@<TRIPOS>ATOM
      1 C          62.3954   87.9307   10.9180 C.ar    1  UNL1       -0.0004
      2 C          62.3355   89.2455   10.1985 C.ar    1  UNL1       -0.0024
      3 C          62.9269   90.4721   10.8275 C.ar    1  UNL1       -0.0002
      4 C          63.5781   90.3840   12.1759 C.ar    1  UNL1        0.0030
      5 C          64.1695   91.6107   12.8048 C.ar    1  UNL1        0.0369
      6 C          64.8207   91.5225   14.1532 C.ar    1  UNL1        0.1386
      7 C          64.8806   90.2076   14.8726 C.ar    1  UNL1        0.0369
      8 C          64.2892   88.9809   14.2437 C.ar    1  UNL1        0.0031
      9 C          63.6380   89.0691   12.8953 C.ar    1  UNL1       -0.0001
     10 C          63.0467   87.8425   12.2663 C.ar    1  UNL1       -0.0024
     11 C          61.8041   86.7039   10.2890 C.3     1  UNL1        0.1240
     12 N          60.6448   86.8295    9.3454 N.ar    1  UNL1       -0.3045
     13 C          60.4050   85.9888    8.1265 C.ar    1  UNL1        0.0983
     14 C          59.1338   86.4575    7.4828 C.ar    1  UNL1        0.1193
     15 N          58.5879   87.5879    8.3039 N.ar    1  UNL1       -0.2223
     16 C          59.5218   87.8178    9.4550 C.ar    1  UNL1        0.1788
     17 C          62.0910   84.7104   11.9302 C.3     1  UNL1        0.0197
     18 C          62.3720   85.3518   10.6036 C.3     1  UNL1        0.0827
     19 N          63.2209   84.6409    9.5917 N.3     1  UNL1       -0.2696
     20 C          63.3348   85.1802    8.1966 C.3     1  UNL1        0.0897
     21 C          63.9558   83.3906    9.9748 C.3     1  UNL1        0.0897
     22 O          65.4120   92.7491   14.7822 O.3     1  UNL1       -0.4751
     23 C          66.5767   93.4372   14.1339 C.3     1  UNL1        0.2103
     24 C          66.9726   93.0811   12.7317 C.3     1  UNL1        0.0724
     25 C          66.1662   94.2338   12.2112 C.3     1  UNL1        0.0093
     26 C          67.7790   91.9283   13.2522 C.3     1  UNL1        0.0093
     27 C          67.3685   92.7249   11.3294 C.2     1  UNL1        0.0532
     28 O          66.4867   93.1128   10.1796 O.co2   1  UNL1       -0.5491
     29 O          68.6463   91.9808   11.0769 O.co2   1  UNL1       -0.5491
@<TRIPOS>UNITY_ATOM_ATTR
28 1
charge -1
@<TRIPOS>BOND
     1    17    18    1
     2    18    11    1
     3    11     1    1
     4     1     2   ar
     5     2     3   ar
     6     3     4   ar
     7     4     5   ar
     8     5     6   ar
     9     6    22    1
    10    22    23    1
    11    23    24    1
    12    24    25    1
    13    24    26    1
    14    24    27    1
    15    27    28   ar
    16    27    29   ar
    17     6     7   ar
    18     7     8   ar
    19     8     9   ar
    20     9    10   ar
    21    11    12    1
    22    12    13   ar
    23    13    14   ar
    24    14    15   ar
    25    15    16   ar
    26    18    19    1
    27    19    20    1
    28    19    21    1
    29    10     1   ar
    30    16    12   ar
    31     9     4   ar
@<TRIPOS>MOLECULE
*****
 29 31 0 0 0
SMALL
GASTEIGER

@<TRIPOS>ATOM
      1 C          63.2690   86.3745   12.6139 C.ar    1  UNL1       -0.0004
      2 C          63.9542   86.1172   13.9232 C.ar    1  UNL1       -0.0024
      3 C          64.4559   87.2669   14.7457 C.ar    1  UNL1       -0.0002
      4 C          64.2724   88.6738   14.2589 C.ar    1  UNL1        0.0030
      5 C          64.7741   89.8235   15.0814 C.ar    1  UNL1        0.0369
      6 C          64.5906   91.2304   14.5947 C.ar    1  UNL1        0.1386
      7 C          63.9053   91.4876   13.2853 C.ar    1  UNL1        0.0369
      8 C          63.4036   90.3379   12.4628 C.ar    1  UNL1        0.0031
      9 C          63.5871   88.9310   12.9496 C.ar    1  UNL1       -0.0001
     10 C          63.0854   87.7814   12.1271 C.ar    1  UNL1       -0.0024
     11 C          62.7672   85.2248   11.7913 C.3     1  UNL1        0.1240
     12 N          62.2290   85.4677   10.4125 N.ar    1  UNL1       -0.3045
     13 C          60.8962   86.0701   10.0797 C.ar    1  UNL1        0.0983
     14 C          60.7725   86.1255    8.5858 C.ar    1  UNL1        0.1193
     15 N          62.0289   85.5574    7.9953 N.ar    1  UNL1       -0.2223
     16 C          62.9291   85.1509    9.1242 C.ar    1  UNL1        0.1788
     17 C          62.1787   83.5401   13.6796 C.3     1  UNL1        0.0197
     18 C          62.8038   83.8323   12.3477 C.3     1  UNL1        0.0827
     19 N          63.4653   82.7319   11.5721 N.3     1  UNL1       -0.2696
     20 C          62.8476   81.3654   11.5334 C.3     1  UNL1        0.0897
     21 C          64.7445   82.9978   10.8353 C.3     1  UNL1        0.0897
     22 O          65.0922   92.3800   15.4172 O.3     1  UNL1       -0.4751
     23 C          66.3778   93.0603   15.0500 C.3     1  UNL1        0.2103
     24 C          67.0635   92.7218   13.7596 C.3     1  UNL1        0.0724
     25 C          67.8066   91.6137   14.4452 C.3     1  UNL1        0.0093
     26 C          66.3205   93.8298   13.0740 C.3     1  UNL1        0.0093
     27 C          67.7493   92.3832   12.4693 C.2     1  UNL1        0.0532
     28 O          67.2001   92.8961   11.1710 O.co2   1  UNL1       -0.5491
     29 O          68.9842   91.5318   12.4771 O.co2   1  UNL1       -0.5491
@<TRIPOS>UNITY_ATOM_ATTR
28 1
charge -1
@<TRIPOS>BOND
     1    17    18    1
     2    18    11    1
     3    11     1    1
     4     1     2   ar
     5     2     3   ar
     6     3     4   ar
     7     4     5   ar
     8     5     6   ar
     9     6    22    1
    10    22    23    1
    11    23    24    1
    12    24    25    1
    13    24    26    1
    14    24    27    1
    15    27    28   ar
    16    27    29   ar
    17     6     7   ar
    18     7     8   ar
    19     8     9   ar
    20     9    10   ar
    21    11    12    1
    22    12    13   ar
    23    13    14   ar
    24    14    15   ar
    25    15    16   ar
    26    18    19    1
    27    19    20    1
    28    19    21    1
    29    10     1   ar
    30    16    12   ar
    31     9     4   ar
@<TRIPOS>MOLECULE
*****
 29 31 0 0 0
SMALL
GASTEIGER

@<TRIPOS>ATOM
      1 C          62.5353   87.6454   10.6861 C.ar    1  UNL1       -0.0004
      2 C          62.4981   88.9911   10.0245 C.ar    1  UNL1       -0.0024
      3 C          62.9855   90.2030   10.7618 C.ar    1  UNL1       -0.0002
      4 C          63.5101   90.0692   12.1607 C.ar    1  UNL1        0.0030
      5 C          63.9976   91.2813   12.8980 C.ar    1  UNL1        0.0369
      6 C          64.5222   91.1475   14.2969 C.ar    1  UNL1        0.1386
      7 C          64.5594   89.8018   14.9585 C.ar    1  UNL1        0.0369
      8 C          64.0719   88.5898   14.2212 C.ar    1  UNL1        0.0031
      9 C          63.5473   88.7236   12.8223 C.ar    1  UNL1       -0.0001
     10 C          63.0599   87.5117   12.0850 C.ar    1  UNL1       -0.0024
     11 C          62.0479   86.4334    9.9489 C.3     1  UNL1        0.1240
     12 N          62.6093   85.0812   10.2747 N.ar    1  UNL1       -0.3045
     13 C          62.3351   84.2890   11.5187 C.ar    1  UNL1        0.0983
     14 C          63.0998   83.0019   11.4267 C.ar    1  UNL1        0.1193
     15 N          63.8467   82.9985   10.1258 N.ar    1  UNL1       -0.2223
     16 C          63.5436   84.2836    9.4139 C.ar    1  UNL1        0.1788
     17 C          61.0589   85.7175    7.6555 C.3     1  UNL1        0.0197
     18 C          60.9990   86.5737    8.8857 C.3     1  UNL1        0.0827
     19 N          59.8904   87.5701    9.0528 N.3     1  UNL1       -0.2696
     20 C          59.2072   88.1414    7.8457 C.3     1  UNL1        0.0897
     21 C          59.4649   87.9954   10.4268 C.3     1  UNL1        0.0897
     22 O          65.0096   92.3594   15.0342 O.3     1  UNL1       -0.4751
     23 C          66.1149   93.1939   14.4577 C.3     1  UNL1        0.2103
     24 C          67.5455   92.8084   14.6911 C.3     1  UNL1        0.0724
     25 C          67.6137   92.2257   13.3106 C.3     1  UNL1        0.0093
     26 C          67.4774   93.3911   16.0716 C.3     1  UNL1        0.0093
     27 C          68.9762   92.4229   14.9245 C.2     1  UNL1        0.0532
     28 O          69.4967   92.2837   16.3244 O.co2   1  UNL1       -0.5491
     29 O          69.8864   92.1765   13.7579 O.co2   1  UNL1       -0.5491
@<TRIPOS>UNITY_ATOM_ATTR
28 1
charge -1
@<TRIPOS>BOND
     1    17    18    1
     2    18    11    1
     3    11     1    1
     4     1     2   ar
     5     2     3   ar
     6     3     4   ar
     7     4     5   ar
     8     5     6   ar
     9     6    22    1
    10    22    23    1
    11    23    24    1
    12    24    25    1
    13    24    26    1
    14    24    27    1
    15    27    28   ar
    16    27    29   ar
    17     6     7   ar
    18     7     8   ar
    19     8     9   ar
    20     9    10   ar
    21    11    12    1
    22    12    13   ar
    23    13    14   ar
    24    14    15   ar
    25    15    16   ar
    26    18    19    1
    27    19    20    1
    28    19    21    1
    29    10     1   ar
    30    16    12   ar
    31     9     4   ar
@<TRIPOS>MOLECULE
*****
 29 31 0 0 0
SMALL
GASTEIGER

@<TRIPOS>ATOM
      1 C          65.2125   92.4727   11.6124 C.ar    1  UNL1       -0.0004
      2 C          64.5384   92.6262   10.2812 C.ar    1  UNL1       -0.0024
      3 C          63.4883   91.6437    9.8547 C.ar    1  UNL1       -0.0002
      4 C          63.1122   90.5078   10.7593 C.ar    1  UNL1        0.0030
      5 C          62.0621   89.5253   10.3327 C.ar    1  UNL1        0.0369
      6 C          61.6860   88.3894   11.2373 C.ar    1  UNL1        0.1386
      7 C          62.3602   88.2360   12.5685 C.ar    1  UNL1        0.0369
      8 C          63.4103   89.2184   12.9950 C.ar    1  UNL1        0.0031
      9 C          63.7863   90.3543   12.0904 C.ar    1  UNL1       -0.0001
     10 C          64.8364   91.3368   12.5170 C.ar    1  UNL1       -0.0024
     11 C          66.2626   93.4552   12.0390 C.3     1  UNL1        0.1240
     12 N          66.6114   94.6129   11.1513 N.ar    1  UNL1       -0.3045
     13 C          66.1868   96.0374   11.3524 C.ar    1  UNL1        0.0983
     14 C          66.7590   96.8543   10.2320 C.ar    1  UNL1        0.1193
     15 N          67.5373   95.9347    9.3384 N.ar    1  UNL1       -0.2223
     16 C          67.4461   94.5494    9.9066 C.ar    1  UNL1        0.1788
     17 C          66.6593   94.2039   14.4951 C.3     1  UNL1        0.0197
     18 C          66.9640   93.2799   13.3533 C.3     1  UNL1        0.0827
     19 N          67.9700   92.1808   13.5259 N.3     1  UNL1       -0.2696
     20 C          68.7161   91.6534   12.3362 C.3     1  UNL1        0.0897
     21 C          68.2298   91.6090   14.8880 C.3     1  UNL1        0.0897
     22 O          60.6359   87.4069   10.8107 O.3     1  UNL1       -0.4751
     23 C          60.9399   85.9380   10.8083 C.3     1  UNL1        0.2103
     24 C          62.0349   85.4001    9.9357 C.3     1  UNL1        0.0724
     25 C          62.6910   84.7867   11.1370 C.3     1  UNL1        0.0093
     26 C          61.3788   86.0135    8.7343 C.3     1  UNL1        0.0093
     27 C          63.1299   84.8622    9.0631 C.2     1  UNL1        0.0532
     28 O          63.9885   83.7318    9.5480 O.co2   1  UNL1       -0.5491
     29 O          63.3665   85.4547    7.7055 O.co2   1  UNL1       -0.5491
@<TRIPOS>UNITY_ATOM_ATTR
28 1
charge -1
@<TRIPOS>BOND
     1    17    18    1
     2    18    11    1
     3    11     1    1
     4     1     2   ar
     5     2     3   ar
     6     3     4   ar
     7     4     5   ar
     8     5     6   ar
     9     6    22    1
    10    22    23    1
    11    23    24    1
    12    24    25    1
    13    24    26    1
    14    24    27    1
    15    27    28   ar
    16    27    29   ar
    17     6     7   ar
    18     7     8   ar
    19     8     9   ar
    20     9    10   ar
    21    11    12    1
    22    12    13   ar
    23    13    14   ar
    24    14    15   ar
    25    15    16   ar
    26    18    19    1
    27    19    20    1
    28    19    21    1
    29    10     1   ar
    30    16    12   ar
    31     9     4   ar
@<TRIPOS>MOLECULE
*****
 29 31 0 0 0
SMALL
GASTEIGER

@<TRIPOS>ATOM
      1 C          62.5244   88.1013   10.8315 C.ar    1  UNL1       -0.0004
      2 C          62.8579   87.9266   12.2835 C.ar    1  UNL1       -0.0024
      3 C          63.5840   89.0117   13.0219 C.ar    1  UNL1       -0.0002
      4 C          63.9766   90.2714   12.3085 C.ar    1  UNL1        0.0030
      5 C          64.7028   91.3564   13.0471 C.ar    1  UNL1        0.0369
      6 C          65.0953   92.6162   12.3336 C.ar    1  UNL1        0.1386
      7 C          64.7617   92.7908   10.8816 C.ar    1  UNL1        0.0369
      8 C          64.0356   91.7058   10.1431 C.ar    1  UNL1        0.0031
      9 C          63.6430   90.4461   10.8566 C.ar    1  UNL1       -0.0001
     10 C          62.9169   89.3610   10.1181 C.ar    1  UNL1       -0.0024
     11 C          61.7982   87.0163   10.0930 C.3     1  UNL1        0.1240
     12 N          60.7035   87.3678    9.1296 N.ar    1  UNL1       -0.3045
     13 C          60.3164   88.7524    8.7018 C.ar    1  UNL1        0.0983
     14 C          59.1773   88.6368    7.7328 C.ar    1  UNL1        0.1193
     15 N          58.8603   87.1807    7.5616 N.ar    1  UNL1       -0.2223
     16 C          59.8035   86.3964    8.4249 C.ar    1  UNL1        0.1788
     17 C          61.7049   84.8720   11.5571 C.3     1  UNL1        0.0197
     18 C          62.1668   85.5798   10.3177 C.3     1  UNL1        0.0827
     19 N          62.9972   84.8509    9.3032 N.3     1  UNL1       -0.2696
     20 C          62.9592   85.2688    7.8630 C.3     1  UNL1        0.0897
     21 C          63.8655   83.7043    9.7288 C.3     1  UNL1        0.0897
     22 O          65.8214   93.7012   13.0721 O.3     1  UNL1       -0.4751
     23 C          66.2928   93.4666   14.4767 C.3     1  UNL1        0.2103
     24 C          67.6900   92.9822   14.7279 C.3     1  UNL1        0.0724
     25 C          67.6909   92.2937   13.3952 C.3     1  UNL1        0.0093
     26 C          67.6892   93.6706   16.0605 C.3     1  UNL1        0.0093
     27 C          69.0872   92.4977   14.9790 C.2     1  UNL1        0.0532
     28 O          69.5609   92.2698   16.3840 O.co2   1  UNL1       -0.5491
     29 O          70.0108   92.2411   13.8253 O.co2   1  UNL1       -0.5491
@<TRIPOS>UNITY_ATOM_ATTR
28 1
charge -1
@<TRIPOS>BOND
     1    17    18    1
     2    18    11    1
     3    11     1    1
     4     1     2   ar
     5     2     3   ar
     6     3     4   ar
     7     4     5   ar
     8     5     6   ar
     9     6    22    1
    10    22    23    1
    11    23    24    1
    12    24    25    1
    13    24    26    1
    14    24    27    1
    15    27    28   ar
    16    27    29   ar
    17     6     7   ar
    18     7     8   ar
    19     8     9   ar
    20     9    10   ar
    21    11    12    1
    22    12    13   ar
    23    13    14   ar
    24    14    15   ar
    25    15    16   ar
    26    18    19    1
    27    19    20    1
    28    19    21    1
    29    10     1   ar
    30    16    12   ar
    31     9     4   ar
@<TRIPOS>MOLECULE
*****
 29 31 0 0 0
SMALL
GASTEIGER

@<TRIPOS>ATOM
      1 C          60.7713   89.0112    9.3138 C.ar    1  UNL1       -0.0004
      2 C          60.2417   88.6320   10.6650 C.ar    1  UNL1       -0.0024
      3 C          60.9123   89.1457   11.9045 C.ar    1  UNL1       -0.0002
      4 C          62.1125   90.0385   11.7928 C.ar    1  UNL1        0.0030
      5 C          62.7831   90.5522   13.0324 C.ar    1  UNL1        0.0369
      6 C          63.9832   91.4451   12.9207 C.ar    1  UNL1        0.1386
      7 C          64.5127   91.8243   11.5694 C.ar    1  UNL1        0.0369
      8 C          63.8421   91.3106   10.3299 C.ar    1  UNL1        0.0031
      9 C          62.6420   90.4177   10.4416 C.ar    1  UNL1       -0.0001
     10 C          61.9714   89.9041    9.2021 C.ar    1  UNL1       -0.0024
     11 C          60.1007   88.4976    8.0742 C.3     1  UNL1        0.1240
     12 N          59.6658   89.4555    7.0050 N.ar    1  UNL1       -0.3045
     13 C          58.2532   89.8638    6.7084 C.ar    1  UNL1        0.0983
     14 C          58.2815   90.8339    5.5647 C.ar    1  UNL1        0.1193
     15 N          59.7115   91.0252    5.1544 N.ar    1  UNL1       -0.2223
     16 C          60.5670   90.1733    6.0446 C.ar    1  UNL1        0.1788
     17 C          58.4654   86.4992    7.7872 C.3     1  UNL1        0.0197
     18 C          59.8650   87.0260    7.9039 C.3     1  UNL1        0.0827
     19 N          61.0289   86.0813    7.8503 N.3     1  UNL1       -0.2696
     20 C          62.0682   86.1096    8.9316 C.3     1  UNL1        0.0897
     21 C          61.1535   85.1083    6.7155 C.3     1  UNL1        0.0897
     22 O          64.6538   91.9587   14.1602 O.3     1  UNL1       -0.4751
     23 C          65.9297   91.3310   14.6377 C.3     1  UNL1        0.2103
     24 C          67.1371   92.1846   14.8897 C.3     1  UNL1        0.0724
     25 C          67.7327   91.7253   13.5919 C.3     1  UNL1        0.0093
     26 C          66.5416   92.6438   16.1875 C.3     1  UNL1        0.0093
     27 C          68.3445   93.0381   15.1417 C.2     1  UNL1        0.0532
     28 O          68.2827   94.1454   16.1518 O.co2   1  UNL1       -0.5491
     29 O          69.6138   92.7846   14.3836 O.co2   1  UNL1       -0.5491
@<TRIPOS>UNITY_ATOM_ATTR
28 1
charge -1
@<TRIPOS>BOND
     1    17    18    1
     2    18    11    1
     3    11     1    1
     4     1     2   ar
     5     2     3   ar
     6     3     4   ar
     7     4     5   ar
     8     5     6   ar
     9     6    22    1
    10    22    23    1
    11    23    24    1
    12    24    25    1
    13    24    26    1
    14    24    27    1
    15    27    28   ar
    16    27    29   ar
    17     6     7   ar
    18     7     8   ar
    19     8     9   ar
    20     9    10   ar
    21    11    12    1
    22    12    13   ar
    23    13    14   ar
    24    14    15   ar
    25    15    16   ar
    26    18    19    1
    27    19    20    1
    28    19    21    1
    29    10     1   ar
    30    16    12   ar
    31     9     4   ar
@<TRIPOS>MOLECULE
*****
 29 31 0 0 0
SMALL
GASTEIGER

@<TRIPOS>ATOM
      1 C          63.1695   86.1701   12.0665 C.ar    1  UNL1       -0.0004
      2 C          63.7717   85.7958   13.3883 C.ar    1  UNL1       -0.0024
      3 C          64.2153   86.8665   14.3405 C.ar    1  UNL1       -0.0002
      4 C          64.0567   88.3116   13.9709 C.ar    1  UNL1        0.0030
      5 C          64.5004   89.3823   14.9232 C.ar    1  UNL1        0.0369
      6 C          64.3418   90.8274   14.5536 C.ar    1  UNL1        0.1386
      7 C          63.7396   91.2017   13.2317 C.ar    1  UNL1        0.0369
      8 C          63.2960   90.1310   12.2795 C.ar    1  UNL1        0.0031
      9 C          63.4546   88.6859   12.6491 C.ar    1  UNL1       -0.0001
     10 C          63.0109   87.6152   11.6969 C.ar    1  UNL1       -0.0024
     11 C          62.7258   85.0994   11.1142 C.3     1  UNL1        0.1240
     12 N          62.7261   83.6633   11.5475 N.ar    1  UNL1       -0.3045
     13 C          62.1287   83.1241   12.8133 C.ar    1  UNL1        0.0983
     14 C          62.3573   81.6418   12.8391 C.ar    1  UNL1        0.1193
     15 N          63.0960   81.2649   11.5892 N.ar    1  UNL1       -0.2223
     16 C          63.3240   82.5143   10.7909 C.ar    1  UNL1        0.1788
     17 C          63.1522   85.1377    8.5517 C.3     1  UNL1        0.0197
     18 C          62.2819   85.4647    9.7288 C.3     1  UNL1        0.0827
     19 N          60.9676   86.1571    9.5206 N.3     1  UNL1       -0.2696
     20 C          60.2461   86.0190    8.2127 C.3     1  UNL1        0.0897
     21 C          60.3748   86.9875   10.6200 C.3     1  UNL1        0.0897
     22 O          64.7855   91.8981   15.5057 O.3     1  UNL1       -0.4751
     23 C          65.6646   93.0136   15.0233 C.3     1  UNL1        0.2103
     24 C          67.1379   92.9823   15.3035 C.3     1  UNL1        0.0724
     25 C          66.8564   92.7235   16.7540 C.3     1  UNL1        0.0093
     26 C          67.4193   93.2411   13.8531 C.3     1  UNL1        0.0093
     27 C          68.6111   92.9510   15.5838 C.2     1  UNL1        0.0532
     28 O          69.4206   94.2099   15.4835 O.co2   1  UNL1       -0.5491
     29 O          69.2748   91.6608   15.9645 O.co2   1  UNL1       -0.5491
@<TRIPOS>UNITY_ATOM_ATTR
28 1
charge -1
@<TRIPOS>BOND
     1    17    18    1
     2    18    11    1
     3    11     1    1
     4     1     2   ar
     5     2     3   ar
     6     3     4   ar
     7     4     5   ar
     8     5     6   ar
     9     6    22    1
    10    22    23    1
    11    23    24    1
    12    24    25    1
    13    24    26    1
    14    24    27    1
    15    27    28   ar
    16    27    29   ar
    17     6     7   ar
    18     7     8   ar
    19     8     9   ar
    20     9    10   ar
    21    11    12    1
    22    12    13   ar
    23    13    14   ar
    24    14    15   ar
    25    15    16   ar
    26    18    19    1
    27    19    20    1
    28    19    21    1
    29    10     1   ar
    30    16    12   ar
    31     9     4   ar
