@<TRIPOS>MOLECULE
*****
 45 48 0 0 0
SMALL
GASTEIGER

@<TRIPOS>ATOM
      1 C          60.0357   88.7784    8.2203 C.ar    1  UNL1        0.1496
      2 C          60.8718   89.7612    8.9853 C.ar    1  UNL1        0.0523
      3 C          62.0587   89.2857    9.7696 C.ar    1  UNL1        0.0564
      4 C          62.4094   87.8274    9.7891 C.ar    1  UNL1        0.0523
      5 C          61.5733   86.8446    9.0243 C.ar    1  UNL1        0.1496
      6 C          60.3864   87.3201    8.2399 C.ar    1  UNL1        0.0750
      7 N          62.8948   90.2685   10.5345 N.am    1  UNL1       -0.2838
      8 C          63.4410   89.8997   11.8820 C.2     1  UNL1        0.2256
      9 O          63.1511   88.5481   12.4645 O.2     1  UNL1       -0.2748
     10 H          63.0851   91.1555   10.1522 H       1  UNL1        0.1549
     11 C          64.2772   90.8824   12.6469 C.3     1  UNL1        0.0769
     12 C          64.8932   92.0532   11.9401 C.3     1  UNL1        0.0104
     13 C          65.7293   93.0360   12.7050 C.3     1  UNL1        0.0160
     14 C          65.9494   92.8478   14.1768 C.3     1  UNL1        0.0508
     15 N          66.7856   93.8306   14.9417 N.3     1  UNL1       -0.3222
     16 C          65.3334   91.6770   14.8837 C.3     1  UNL1        0.0160
     17 C          64.4973   90.6943   14.1187 C.3     1  UNL1        0.0104
     18 H          67.1216   94.5563   14.3087 H       1  UNL1        0.1188
     19 H          67.5815   93.3478   15.3586 H       1  UNL1        0.1188
     20 O          58.8488   89.2539    7.4360 O.3     1  UNL1       -0.4533
     21 C          59.4276   92.0214    3.9351 C.ar    1  UNL1        0.0815
     22 C          58.0541   91.7966    4.4944 C.ar    1  UNL1        0.0105
     23 C          57.8612   90.8741    5.6613 C.ar    1  UNL1        0.0377
     24 C          59.0418   90.1764    6.2690 C.ar    1  UNL1        0.1453
     25 C          60.4153   90.4012    5.7098 C.ar    1  UNL1        0.0377
     26 C          60.6082   91.3237    4.5428 C.ar    1  UNL1        0.0105
     27 N          60.1519   94.3294    2.9873 N.2     1  UNL1       -0.0994
     28 C          59.6206   92.9439    2.7682 C.2     1  UNL1        0.3093
     29 N          59.2822   92.4809    1.3822 N.pl3   1  UNL1       -0.2466
     30 H          60.2785   94.9349    2.2213 H       1  UNL1        0.3633
     31 H          59.4088   93.0864    0.6163 H       1  UNL1        0.2884
     32 H          58.9334   91.5715    1.2384 H       1  UNL1        0.2884
     33 O          61.9240   85.3863    9.0438 O.3     1  UNL1       -0.4533
     34 C          62.4494   84.7580   10.3004 C.ar    1  UNL1        0.1453
     35 C          61.9779   85.2476   11.6376 C.ar    1  UNL1        0.0377
     36 C          62.5033   84.6194   12.8943 C.ar    1  UNL1        0.0105
     37 C          63.5002   83.5015   12.8138 C.ar    1  UNL1        0.0815
     38 C          63.9718   83.0119   11.4767 C.ar    1  UNL1        0.0105
     39 C          63.4464   83.6402   10.2200 C.ar    1  UNL1        0.0377
     40 C          64.0256   82.8732   14.0704 C.2     1  UNL1        0.3093
     41 N          63.8515   81.4016   14.3027 N.2     1  UNL1       -0.0994
     42 N          64.7252   83.7166   15.0949 N.pl3   1  UNL1       -0.2466
     43 H          63.3924   80.8480   13.6304 H       1  UNL1        0.3633
     44 H          64.8395   84.6825   14.9425 H       1  UNL1        0.2884
     45 H          65.0700   83.3042   15.9197 H       1  UNL1        0.2884
@<TRIPOS>BOND
     1    27    28    2
     2    28    29    1
     3    28    21    1
     4    21    22   ar
     5    22    23   ar
     6    23    24   ar
     7    24    20    1
     8    20     1    1
     9     1     2   ar
    10     2     3   ar
    11     3     7    1
    12     7     8   am
    13     8     9    2
    14    11     8    1
    15    11    12    1
    16    12    13    1
    17    13    14    1
    18    14    15    1
    19    14    16    1
    20    16    17    1
    21     3     4   ar
    22     4     5   ar
    23     5    33    1
    24    33    34    1
    25    34    35   ar
    26    35    36   ar
    27    36    37   ar
    28    37    40    1
    29    40    41    2
    30    40    42    1
    31    37    38   ar
    32    38    39   ar
    33     5     6   ar
    34    24    25   ar
    35    25    26   ar
    36    26    21   ar
    37     6     1   ar
    38    17    11    1
    39    39    34   ar
    40    27    30    1
    41    29    31    1
    42    29    32    1
    43     7    10    1
    44    15    18    1
    45    15    19    1
    46    41    43    1
    47    42    44    1
    48    42    45    1
@<TRIPOS>MOLECULE
*****
 45 48 0 0 0
SMALL
GASTEIGER

@<TRIPOS>ATOM
      1 C          61.6043   86.8340    8.9936 C.ar    1  UNL1        0.1496
      2 C          62.4323   87.8108    9.7748 C.ar    1  UNL1        0.0523
      3 C          62.0746   89.2675    9.7726 C.ar    1  UNL1        0.0564
      4 C          60.8889   89.7474    8.9893 C.ar    1  UNL1        0.0523
      5 C          60.0609   88.7707    8.2081 C.ar    1  UNL1        0.1496
      6 C          60.4185   87.3139    8.2103 C.ar    1  UNL1        0.0750
      7 N          62.9027   90.2443   10.5539 N.am    1  UNL1       -0.2838
      8 C          63.4326   89.8661   11.9052 C.2     1  UNL1        0.2256
      9 O          63.1343   88.5110   12.4754 O.2     1  UNL1       -0.2748
     10 H          63.0984   91.1336   10.1796 H       1  UNL1        0.1549
     11 C          64.2606   90.8428   12.6864 C.3     1  UNL1        0.0769
     12 C          64.4577   90.6484   14.1607 C.3     1  UNL1        0.0104
     13 C          65.2857   91.6251   14.9419 C.3     1  UNL1        0.0160
     14 C          65.9167   92.7963   14.2488 C.3     1  UNL1        0.0508
     15 N          66.7447   93.7731   15.0300 N.3     1  UNL1       -0.3222
     16 C          65.7195   92.9908   12.7746 C.3     1  UNL1        0.0160
     17 C          64.8915   92.0140   11.9934 C.3     1  UNL1        0.0104
     18 H          66.7718   93.4890   16.0093 H       1  UNL1        0.1188
     19 H          66.3323   94.7031   14.9571 H       1  UNL1        0.1188
     20 O          61.9619   85.3773    8.9958 O.3     1  UNL1       -0.4533
     21 C          63.5000   83.4437   12.7569 C.ar    1  UNL1        0.0815
     22 C          62.5132   84.5701   12.8422 C.ar    1  UNL1        0.0105
     23 C          62.0005   85.2146   11.5885 C.ar    1  UNL1        0.0377
     24 C          62.4746   84.7327   10.2495 C.ar    1  UNL1        0.1453
     25 C          63.4614   83.6063   10.1642 C.ar    1  UNL1        0.0377
     26 C          63.9741   82.9618   11.4179 C.ar    1  UNL1        0.0105
     27 N          64.6466   83.6383   15.0801 N.2     1  UNL1       -0.0994
     28 C          64.0127   82.7991   14.0106 C.2     1  UNL1        0.3093
     29 N          63.8915   81.3155   14.1947 N.pl3   1  UNL1       -0.2466
     30 H          64.9830   83.2153   15.9029 H       1  UNL1        0.3633
     31 H          64.2280   80.8925   15.0175 H       1  UNL1        0.2884
     32 H          63.4754   80.7647   13.4927 H       1  UNL1        0.2884
     33 O          58.8751   89.2507    7.4247 O.3     1  UNL1       -0.4533
     34 C          59.0696   90.1807    6.2640 C.ar    1  UNL1        0.1453
     35 C          57.8917   90.8935    5.6685 C.ar    1  UNL1        0.0377
     36 C          58.0862   91.8235    4.5078 C.ar    1  UNL1        0.0105
     37 C          59.4585   92.0407    3.9426 C.ar    1  UNL1        0.0815
     38 C          60.6364   91.3279    4.5380 C.ar    1  UNL1        0.0105
     39 C          60.4419   90.3979    5.6988 C.ar    1  UNL1        0.0377
     40 C          59.6530   92.9707    2.7819 C.2     1  UNL1        0.3093
     41 N          60.1374   94.3709    3.0157 N.2     1  UNL1       -0.0994
     42 N          59.3631   92.5004    1.3872 N.pl3   1  UNL1       -0.2466
     43 H          60.3277   94.6796    3.9310 H       1  UNL1        0.3633
     44 H          59.0452   91.5814    1.2338 H       1  UNL1        0.2884
     45 H          59.4908   93.1108    0.6254 H       1  UNL1        0.2884
@<TRIPOS>BOND
     1    27    28    2
     2    28    29    1
     3    28    21    1
     4    21    22   ar
     5    22    23   ar
     6    23    24   ar
     7    24    20    1
     8    20     1    1
     9     1     2   ar
    10     2     3   ar
    11     3     7    1
    12     7     8   am
    13     8     9    2
    14    11     8    1
    15    11    12    1
    16    12    13    1
    17    13    14    1
    18    14    15    1
    19    14    16    1
    20    16    17    1
    21     3     4   ar
    22     4     5   ar
    23     5    33    1
    24    33    34    1
    25    34    35   ar
    26    35    36   ar
    27    36    37   ar
    28    37    40    1
    29    40    41    2
    30    40    42    1
    31    37    38   ar
    32    38    39   ar
    33     5     6   ar
    34    24    25   ar
    35    25    26   ar
    36    26    21   ar
    37     6     1   ar
    38    17    11    1
    39    39    34   ar
    40    27    30    1
    41    29    31    1
    42    29    32    1
    43     7    10    1
    44    15    18    1
    45    15    19    1
    46    41    43    1
    47    42    44    1
    48    42    45    1
@<TRIPOS>MOLECULE
*****
 45 48 0 0 0
SMALL
GASTEIGER

@<TRIPOS>ATOM
      1 C          62.1609   90.1937    9.8816 C.ar    1  UNL1        0.1496
      2 C          62.3517   88.9884   10.7541 C.ar    1  UNL1        0.0523
      3 C          61.5130   87.7642   10.5357 C.ar    1  UNL1        0.0564
      4 C          60.4835   87.7451    9.4450 C.ar    1  UNL1        0.0523
      5 C          60.2927   88.9502    8.5726 C.ar    1  UNL1        0.1496
      6 C          61.1314   90.1746    8.7909 C.ar    1  UNL1        0.0750
      7 N          61.7037   86.5589   11.4082 N.am    1  UNL1       -0.2838
      8 C          62.4084   85.3485   10.8713 C.2     1  UNL1        0.2256
      9 O          62.9223   85.3432    9.4621 O.2     1  UNL1       -0.2748
     10 H          61.3665   86.5624   12.3331 H       1  UNL1        0.1549
     11 C          62.5992   84.1433   11.7437 C.3     1  UNL1        0.0769
     12 C          62.8236   82.7962   11.1232 C.3     1  UNL1        0.0104
     13 C          63.0144   81.5910   11.9956 C.3     1  UNL1        0.0160
     14 C          62.9807   81.7328   13.4885 C.3     1  UNL1        0.0508
     15 N          63.1715   80.5276   14.3609 N.3     1  UNL1       -0.3222
     16 C          62.7563   83.0799   14.1090 C.3     1  UNL1        0.0160
     17 C          62.5655   84.2851   13.2366 C.3     1  UNL1        0.0104
     18 H          63.3103   79.7033   13.7763 H       1  UNL1        0.1188
     19 H          62.3451   80.3957   14.9440 H       1  UNL1        0.1188
     20 O          62.9997   91.4179   10.0999 O.3     1  UNL1       -0.4533
     21 C          65.5717   91.7569   13.7768 C.ar    1  UNL1        0.0815
     22 C          64.3075   90.9507   13.8176 C.ar    1  UNL1        0.0105
     23 C          63.4502   90.8377   12.5920 C.ar    1  UNL1        0.0377
     24 C          63.8570   91.5309   11.3256 C.ar    1  UNL1        0.1453
     25 C          65.1212   92.3371   11.2848 C.ar    1  UNL1        0.0377
     26 C          65.9786   92.4501   12.5104 C.ar    1  UNL1        0.0105
     27 N          65.9492   92.6610   16.1831 N.2     1  UNL1       -0.0994
     28 C          66.4291   91.8699   15.0025 C.2     1  UNL1        0.3093
     29 N          67.7663   91.1918   15.0475 N.pl3   1  UNL1       -0.2466
     30 H          66.5119   92.7351   16.9875 H       1  UNL1        0.3633
     31 H          68.3289   91.2660   15.8519 H       1  UNL1        0.2884
     32 H          68.0812   90.6726   14.2726 H       1  UNL1        0.2884
     33 O          59.2631   88.9311    7.4818 O.3     1  UNL1       -0.4533
     34 C          59.3379   89.9268    6.3624 C.ar    1  UNL1        0.1453
     35 C          60.6579   90.2359    5.7205 C.ar    1  UNL1        0.0377
     36 C          60.7327   91.2316    4.6011 C.ar    1  UNL1        0.0105
     37 C          59.4874   91.9181    4.1236 C.ar    1  UNL1        0.0815
     38 C          58.1674   91.6090    4.7655 C.ar    1  UNL1        0.0105
     39 C          58.0926   90.6133    5.8849 C.ar    1  UNL1        0.0377
     40 C          59.5622   92.9138    3.0042 C.2     1  UNL1        0.3093
     41 N          60.0526   94.3061    3.2704 N.2     1  UNL1       -0.0994
     42 N          59.1464   92.5171    1.6186 N.pl3   1  UNL1       -0.2466
     43 H          60.3254   94.5665    4.1798 H       1  UNL1        0.3633
     44 H          58.8246   91.6032    1.4439 H       1  UNL1        0.2884
     45 H          59.1955   93.1706    0.8839 H       1  UNL1        0.2884
@<TRIPOS>BOND
     1    27    28    2
     2    28    29    1
     3    28    21    1
     4    21    22   ar
     5    22    23   ar
     6    23    24   ar
     7    24    20    1
     8    20     1    1
     9     1     2   ar
    10     2     3   ar
    11     3     7    1
    12     7     8   am
    13     8     9    2
    14    11     8    1
    15    11    12    1
    16    12    13    1
    17    13    14    1
    18    14    15    1
    19    14    16    1
    20    16    17    1
    21     3     4   ar
    22     4     5   ar
    23     5    33    1
    24    33    34    1
    25    34    35   ar
    26    35    36   ar
    27    36    37   ar
    28    37    40    1
    29    40    41    2
    30    40    42    1
    31    37    38   ar
    32    38    39   ar
    33     5     6   ar
    34    24    25   ar
    35    25    26   ar
    36    26    21   ar
    37     6     1   ar
    38    17    11    1
    39    39    34   ar
    40    27    30    1
    41    29    31    1
    42    29    32    1
    43     7    10    1
    44    15    18    1
    45    15    19    1
    46    41    43    1
    47    42    44    1
    48    42    45    1
@<TRIPOS>MOLECULE
*****
 45 48 0 0 0
SMALL
GASTEIGER

@<TRIPOS>ATOM
      1 C          60.2952   88.9495    8.5801 C.ar    1  UNL1        0.1496
      2 C          60.4900   87.7430    9.4499 C.ar    1  UNL1        0.0523
      3 C          61.5174   87.7641   10.5425 C.ar    1  UNL1        0.0564
      4 C          62.3501   88.9916   10.7654 C.ar    1  UNL1        0.0523
      5 C          62.1554   90.1981    9.8957 C.ar    1  UNL1        0.1496
      6 C          61.1279   90.1771    8.8030 C.ar    1  UNL1        0.0750
      7 N          61.7122   86.5575   11.4123 N.am    1  UNL1       -0.2838
      8 C          62.4158   85.3484   10.8710 C.2     1  UNL1        0.2256
      9 O          62.9246   85.3459    9.4598 O.2     1  UNL1       -0.2748
     10 H          61.3782   86.5593   12.3384 H       1  UNL1        0.1549
     11 C          62.6106   84.1420   11.7407 C.3     1  UNL1        0.0769
     12 C          62.8192   82.7937   11.1172 C.3     1  UNL1        0.0104
     13 C          63.0139   81.5872   11.9869 C.3     1  UNL1        0.0160
     14 C          63.0001   81.7290   13.4801 C.3     1  UNL1        0.0508
     15 N          63.1949   80.5225   14.3498 N.3     1  UNL1       -0.3222
     16 C          62.7916   83.0772   14.1036 C.3     1  UNL1        0.0160
     17 C          62.5968   84.2837   13.2338 C.3     1  UNL1        0.0104
     18 H          63.3214   79.6975   13.7635 H       1  UNL1        0.1188
     19 H          62.3752   80.3953   14.9434 H       1  UNL1        0.1188
     20 O          59.2678   88.9284    7.4875 O.3     1  UNL1       -0.4533
     21 C          59.5005   91.9069    4.1222 C.ar    1  UNL1        0.0815
     22 C          60.7467   91.2331    4.6150 C.ar    1  UNL1        0.0105
     23 C          60.6692   90.2403    5.7368 C.ar    1  UNL1        0.0377
     24 C          59.3453   89.9212    6.3657 C.ar    1  UNL1        0.1453
     25 C          58.0991   90.5950    5.8729 C.ar    1  UNL1        0.0377
     26 C          58.1767   91.5878    4.7512 C.ar    1  UNL1        0.0105
     27 N          60.0514   94.2977    3.2677 N.2     1  UNL1       -0.0994
     28 C          59.5781   92.8997    3.0005 C.2     1  UNL1        0.3093
     29 N          59.1824   92.4944    1.6116 N.pl3   1  UNL1       -0.2466
     30 H          60.1023   94.9493    2.5314 H       1  UNL1        0.3633
     31 H          59.2333   93.1461    0.8753 H       1  UNL1        0.2884
     32 H          58.8718   91.5768    1.4362 H       1  UNL1        0.2884
     33 O          62.9881   91.4257   10.1186 O.3     1  UNL1       -0.4533
     34 C          63.8454   91.5380   11.3443 C.ar    1  UNL1        0.1453
     35 C          65.1078   92.3472   11.3051 C.ar    1  UNL1        0.0377
     36 C          65.9651   92.4596   12.5308 C.ar    1  UNL1        0.0105
     37 C          65.5600   91.7627   13.7958 C.ar    1  UNL1        0.0815
     38 C          64.2976   90.9536   13.8351 C.ar    1  UNL1        0.0105
     39 C          63.4403   90.8412   12.6094 C.ar    1  UNL1        0.0377
     40 C          66.4172   91.8751   15.0215 C.2     1  UNL1        0.3093
     41 N          65.9273   92.6460   16.2114 N.2     1  UNL1       -0.0994
     42 N          67.7645   91.2166   15.0574 N.pl3   1  UNL1       -0.2466
     43 H          65.0431   93.0782   16.1878 H       1  UNL1        0.3633
     44 H          68.0861   90.7106   14.2765 H       1  UNL1        0.2884
     45 H          68.3272   91.2903   15.8619 H       1  UNL1        0.2884
@<TRIPOS>BOND
     1    27    28    2
     2    28    29    1
     3    28    21    1
     4    21    22   ar
     5    22    23   ar
     6    23    24   ar
     7    24    20    1
     8    20     1    1
     9     1     2   ar
    10     2     3   ar
    11     3     7    1
    12     7     8   am
    13     8     9    2
    14    11     8    1
    15    11    12    1
    16    12    13    1
    17    13    14    1
    18    14    15    1
    19    14    16    1
    20    16    17    1
    21     3     4   ar
    22     4     5   ar
    23     5    33    1
    24    33    34    1
    25    34    35   ar
    26    35    36   ar
    27    36    37   ar
    28    37    40    1
    29    40    41    2
    30    40    42    1
    31    37    38   ar
    32    38    39   ar
    33     5     6   ar
    34    24    25   ar
    35    25    26   ar
    36    26    21   ar
    37     6     1   ar
    38    17    11    1
    39    39    34   ar
    40    27    30    1
    41    29    31    1
    42    29    32    1
    43     7    10    1
    44    15    18    1
    45    15    19    1
    46    41    43    1
    47    42    44    1
    48    42    45    1
@<TRIPOS>MOLECULE
*****
 45 48 0 0 0
SMALL
GASTEIGER

@<TRIPOS>ATOM
      1 C          64.5023   88.8686   14.6875 C.ar    1  UNL1        0.1496
      2 C          63.5529   88.6676   13.5437 C.ar    1  UNL1        0.0523
      3 C          63.4124   89.7265   12.4907 C.ar    1  UNL1        0.0564
      4 C          64.2213   90.9865   12.5814 C.ar    1  UNL1        0.0523
      5 C          65.1707   91.1875   13.7251 C.ar    1  UNL1        0.1496
      6 C          65.3112   90.1285   14.7782 C.ar    1  UNL1        0.0750
      7 N          62.4629   89.5256   11.3469 N.am    1  UNL1       -0.2838
      8 C          62.0586   88.1388   10.9426 C.2     1  UNL1        0.2256
      9 O          62.6038   86.9530   11.6821 O.2     1  UNL1       -0.2748
     10 H          62.1051   90.3038   10.8615 H       1  UNL1        0.1549
     11 C          61.1092   87.9378    9.7988 C.3     1  UNL1        0.0769
     12 C          60.7100   86.5508    9.3904 C.3     1  UNL1        0.0104
     13 C          59.7606   86.3498    8.2466 C.3     1  UNL1        0.0160
     14 C          59.2104   87.5358    7.5113 C.3     1  UNL1        0.0508
     15 N          58.2610   87.3348    6.3675 N.3     1  UNL1       -0.3222
     16 C          59.6096   88.9228    7.9197 C.3     1  UNL1        0.0160
     17 C          60.5590   89.1238    9.0636 C.3     1  UNL1        0.0104
     18 H          58.1016   86.3369    6.2293 H       1  UNL1        0.1188
     19 H          58.6608   87.7360    5.5193 H       1  UNL1        0.1188
     20 O          64.6428   87.8096   15.7405 O.3     1  UNL1       -0.4533
     21 C          63.4853   83.5585   14.8250 C.ar    1  UNL1        0.0815
     22 C          62.6349   84.3865   15.7421 C.ar    1  UNL1        0.0105
     23 C          63.0207   85.8035   16.0473 C.ar    1  UNL1        0.0377
     24 C          64.2570   86.3926   15.4353 C.ar    1  UNL1        0.1453
     25 C          65.1074   85.5646   14.5182 C.ar    1  UNL1        0.0377
     26 C          64.7216   84.1476   14.2131 C.ar    1  UNL1        0.0105
     27 N          61.7316   81.6424   14.8801 N.2     1  UNL1       -0.0994
     28 C          63.0995   82.1415   14.5199 C.2     1  UNL1        0.3093
     29 N          64.0815   81.2235   13.8544 N.pl3   1  UNL1       -0.2466
     30 H          61.4784   80.7124   14.6798 H       1  UNL1        0.3633
     31 H          63.8283   80.2934   13.6542 H       1  UNL1        0.2884
     32 H          64.9793   81.5510   13.6180 H       1  UNL1        0.2884
     33 O          65.9796   92.4474   13.8159 O.3     1  UNL1       -0.4533
     34 C          66.2618   93.2482   12.5793 C.ar    1  UNL1        0.1453
     35 C          66.6066   92.5509   11.2967 C.ar    1  UNL1        0.0377
     36 C          66.8888   93.3517   10.0601 C.ar    1  UNL1        0.0105
     37 C          66.8263   94.8496   10.1061 C.ar    1  UNL1        0.0815
     38 C          66.4816   95.5469   11.3886 C.ar    1  UNL1        0.0105
     39 C          66.1993   94.7462   12.6253 C.ar    1  UNL1        0.0377
     40 C          67.1085   95.6504    8.8696 C.2     1  UNL1        0.3093
     41 N          66.5005   95.2462    7.5592 N.2     1  UNL1       -0.0994
     42 N          67.9988   96.8554    8.9433 N.pl3   1  UNL1       -0.2466
     43 H          65.9162   94.4553    7.5108 H       1  UNL1        0.3633
     44 H          68.3979   97.1207    9.8033 H       1  UNL1        0.2884
     45 H          68.1841   97.3810    8.1317 H       1  UNL1        0.2884
@<TRIPOS>BOND
     1    27    28    2
     2    28    29    1
     3    28    21    1
     4    21    22   ar
     5    22    23   ar
     6    23    24   ar
     7    24    20    1
     8    20     1    1
     9     1     2   ar
    10     2     3   ar
    11     3     7    1
    12     7     8   am
    13     8     9    2
    14    11     8    1
    15    11    12    1
    16    12    13    1
    17    13    14    1
    18    14    15    1
    19    14    16    1
    20    16    17    1
    21     3     4   ar
    22     4     5   ar
    23     5    33    1
    24    33    34    1
    25    34    35   ar
    26    35    36   ar
    27    36    37   ar
    28    37    40    1
    29    40    41    2
    30    40    42    1
    31    37    38   ar
    32    38    39   ar
    33     5     6   ar
    34    24    25   ar
    35    25    26   ar
    36    26    21   ar
    37     6     1   ar
    38    17    11    1
    39    39    34   ar
    40    27    30    1
    41    29    31    1
    42    29    32    1
    43     7    10    1
    44    15    18    1
    45    15    19    1
    46    41    43    1
    47    42    44    1
    48    42    45    1
@<TRIPOS>MOLECULE
*****
 45 48 0 0 0
SMALL
GASTEIGER

@<TRIPOS>ATOM
      1 C          64.0534   86.7338   14.5952 C.ar    1  UNL1        0.1496
      2 C          63.3785   86.8081   13.2576 C.ar    1  UNL1        0.0523
      3 C          63.2996   88.1169   12.5291 C.ar    1  UNL1        0.0564
      4 C          63.8956   89.3514   13.1380 C.ar    1  UNL1        0.0523
      5 C          64.5704   89.2771   14.4756 C.ar    1  UNL1        0.1496
      6 C          64.6494   87.9683   15.2042 C.ar    1  UNL1        0.0750
      7 N          62.6247   88.1912   11.1915 N.am    1  UNL1       -0.2838
      8 C          61.1964   88.6394   11.0960 C.2     1  UNL1        0.2256
      9 O          60.4430   89.0133   12.3381 O.2     1  UNL1       -0.2748
     10 H          63.1192   87.9458   10.3763 H       1  UNL1        0.1549
     11 C          60.5215   88.7138    9.7585 C.3     1  UNL1        0.0769
     12 C          59.8450   87.5011    9.1913 C.3     1  UNL1        0.0104
     13 C          59.1701   87.5754    7.8539 C.3     1  UNL1        0.0160
     14 C          59.1717   88.8625    7.0834 C.3     1  UNL1        0.0508
     15 N          58.4968   88.9368    5.7459 N.3     1  UNL1       -0.3222
     16 C          59.8482   90.0752    7.6506 C.3     1  UNL1        0.0160
     17 C          60.5232   90.0008    8.9882 C.3     1  UNL1        0.0104
     18 H          58.0928   88.0284    5.5180 H       1  UNL1        0.1188
     19 H          59.1806   89.1932    5.0338 H       1  UNL1        0.1188
     20 O          64.1323   85.4250   15.3238 O.3     1  UNL1       -0.4533
     21 C          63.0476   81.6038   13.2092 C.ar    1  UNL1        0.0815
     22 C          62.2298   82.0737   14.3755 C.ar    1  UNL1        0.0105
     23 C          62.5914   83.3475   15.0804 C.ar    1  UNL1        0.0377
     24 C          63.7707   84.1513   14.6189 C.ar    1  UNL1        0.1453
     25 C          64.5885   83.6813   13.4526 C.ar    1  UNL1        0.0377
     26 C          64.2269   82.4076   12.7477 C.ar    1  UNL1        0.0105
     27 N          62.8827   80.2112   11.0221 N.2     1  UNL1       -0.0994
     28 C          62.6860   80.3300   12.5043 C.2     1  UNL1        0.3093
     29 N          62.1277   79.1751   13.2817 N.pl3   1  UNL1       -0.2466
     30 H          62.6453   79.3752   10.5595 H       1  UNL1        0.3633
     31 H          61.8904   78.3391   12.8191 H       1  UNL1        0.2884
     32 H          61.9986   79.2530   14.2546 H       1  UNL1        0.2884
     33 O          65.1664   90.5116   15.0845 O.3     1  UNL1       -0.4533
     34 C          65.4873   91.6945   14.2199 C.ar    1  UNL1        0.1453
     35 C          66.2716   92.8433   14.7814 C.ar    1  UNL1        0.0377
     36 C          66.5926   94.0262   13.9167 C.ar    1  UNL1        0.0105
     37 C          66.1292   94.0604   12.4905 C.ar    1  UNL1        0.0815
     38 C          65.3449   92.9117   11.9289 C.ar    1  UNL1        0.0105
     39 C          65.0240   91.7287   12.7936 C.ar    1  UNL1        0.0377
     40 C          66.4501   95.2433   11.6258 C.2     1  UNL1        0.3093
     41 N          65.9438   96.6049   11.9996 N.2     1  UNL1       -0.0994
     42 N          67.2774   95.0647   10.3874 N.pl3   1  UNL1       -0.2466
     43 H          65.4008   96.7222   12.8124 H       1  UNL1        0.3633
     44 H          67.6097   94.1710   10.1420 H       1  UNL1        0.2884
     45 H          67.4880   95.8411    9.8198 H       1  UNL1        0.2884
@<TRIPOS>BOND
     1    27    28    2
     2    28    29    1
     3    28    21    1
     4    21    22   ar
     5    22    23   ar
     6    23    24   ar
     7    24    20    1
     8    20     1    1
     9     1     2   ar
    10     2     3   ar
    11     3     7    1
    12     7     8   am
    13     8     9    2
    14    11     8    1
    15    11    12    1
    16    12    13    1
    17    13    14    1
    18    14    15    1
    19    14    16    1
    20    16    17    1
    21     3     4   ar
    22     4     5   ar
    23     5    33    1
    24    33    34    1
    25    34    35   ar
    26    35    36   ar
    27    36    37   ar
    28    37    40    1
    29    40    41    2
    30    40    42    1
    31    37    38   ar
    32    38    39   ar
    33     5     6   ar
    34    24    25   ar
    35    25    26   ar
    36    26    21   ar
    37     6     1   ar
    38    17    11    1
    39    39    34   ar
    40    27    30    1
    41    29    31    1
    42    29    32    1
    43     7    10    1
    44    15    18    1
    45    15    19    1
    46    41    43    1
    47    42    44    1
    48    42    45    1
@<TRIPOS>MOLECULE
*****
 45 48 0 0 0
SMALL
GASTEIGER

@<TRIPOS>ATOM
      1 C          63.3984   84.9650   13.7495 C.ar    1  UNL1        0.1496
      2 C          64.2462   86.0466   14.3507 C.ar    1  UNL1        0.0523
      3 C          64.1114   87.4605   13.8684 C.ar    1  UNL1        0.0564
      4 C          63.1288   87.7929   12.7849 C.ar    1  UNL1        0.0523
      5 C          62.2810   86.7114   12.1837 C.ar    1  UNL1        0.1496
      6 C          62.4158   85.2974   12.6660 C.ar    1  UNL1        0.0750
      7 N          64.9593   88.5421   14.4697 N.am    1  UNL1       -0.2838
      8 C          64.8722   89.9437   13.9422 C.2     1  UNL1        0.2256
      9 O          63.9373   90.2636   12.8136 O.2     1  UNL1       -0.2748
     10 H          65.5728   88.3321   15.2104 H       1  UNL1        0.1549
     11 C          65.7200   91.0252   14.5434 C.3     1  UNL1        0.0769
     12 C          67.0590   91.3464   13.9486 C.3     1  UNL1        0.0104
     13 C          67.9068   92.4280   14.5497 C.3     1  UNL1        0.0160
     14 C          67.4156   93.1884   15.7458 C.3     1  UNL1        0.0508
     15 N          68.2633   94.2700   16.3469 N.3     1  UNL1       -0.3222
     16 C          66.0765   92.8672   16.3406 C.3     1  UNL1        0.0160
     17 C          65.2287   91.7856   15.7394 C.3     1  UNL1        0.0104
     18 H          69.1330   94.3526   15.8203 H       1  UNL1        0.1188
     19 H          68.4743   94.0369   17.3173 H       1  UNL1        0.1188
     20 O          63.5332   83.5511   14.2318 O.3     1  UNL1       -0.4533
     21 C          62.9061   80.1303   11.3762 C.ar    1  UNL1        0.0815
     22 C          62.5096   79.9878   12.8158 C.ar    1  UNL1        0.0105
     23 C          62.7186   81.1281   13.7676 C.ar    1  UNL1        0.0377
     24 C          63.3241   82.4108   13.2799 C.ar    1  UNL1        0.1453
     25 C          63.7206   82.5533   11.8403 C.ar    1  UNL1        0.0377
     26 C          63.5116   81.4130   10.8885 C.ar    1  UNL1        0.0105
     27 N          62.3393   79.2633    8.9935 N.2     1  UNL1       -0.0994
     28 C          62.6971   78.9900   10.4243 C.2     1  UNL1        0.3093
     29 N          62.8459   77.5763   10.9032 N.pl3   1  UNL1       -0.2466
     30 H          62.2022   78.5149    8.3688 H       1  UNL1        0.3633
     31 H          62.7088   76.8279   10.2785 H       1  UNL1        0.2884
     32 H          63.0808   77.3969   11.8423 H       1  UNL1        0.2884
     33 O          61.2984   87.0438   11.1002 O.3     1  UNL1       -0.4533
     34 C          61.4226   86.3991    9.7515 C.ar    1  UNL1        0.1453
     35 C          60.2662   86.4294    8.7964 C.ar    1  UNL1        0.0377
     36 C          60.3904   85.7847    7.4478 C.ar    1  UNL1        0.0105
     37 C          61.6708   85.1097    7.0541 C.ar    1  UNL1        0.0815
     38 C          62.8271   85.0794    8.0091 C.ar    1  UNL1        0.0105
     39 C          62.7030   85.7242    9.3579 C.ar    1  UNL1        0.0377
     40 C          61.7949   84.4650    5.7055 C.2     1  UNL1        0.3093
     41 N          60.7652   83.4738    5.2504 N.2     1  UNL1       -0.0994
     42 N          62.9489   84.8115    4.8119 N.pl3   1  UNL1       -0.2466
     43 H          60.0079   83.2463    5.8369 H       1  UNL1        0.3633
     44 H          63.6247   85.4621    5.1106 H       1  UNL1        0.2884
     45 H          63.0303   84.3884    3.9267 H       1  UNL1        0.2884
@<TRIPOS>BOND
     1    27    28    2
     2    28    29    1
     3    28    21    1
     4    21    22   ar
     5    22    23   ar
     6    23    24   ar
     7    24    20    1
     8    20     1    1
     9     1     2   ar
    10     2     3   ar
    11     3     7    1
    12     7     8   am
    13     8     9    2
    14    11     8    1
    15    11    12    1
    16    12    13    1
    17    13    14    1
    18    14    15    1
    19    14    16    1
    20    16    17    1
    21     3     4   ar
    22     4     5   ar
    23     5    33    1
    24    33    34    1
    25    34    35   ar
    26    35    36   ar
    27    36    37   ar
    28    37    40    1
    29    40    41    2
    30    40    42    1
    31    37    38   ar
    32    38    39   ar
    33     5     6   ar
    34    24    25   ar
    35    25    26   ar
    36    26    21   ar
    37     6     1   ar
    38    17    11    1
    39    39    34   ar
    40    27    30    1
    41    29    31    1
    42    29    32    1
    43     7    10    1
    44    15    18    1
    45    15    19    1
    46    41    43    1
    47    42    44    1
    48    42    45    1
