@<TRIPOS>MOLECULE
*****
 33 37 0 0 0
SMALL
GASTEIGER

@<TRIPOS>ATOM
      1 C          67.3798   93.9167   15.3503 C.3     1  UNL1        0.1287
      2 P          66.7099   92.6009   15.0858 P.3     1  UNL1        0.3439
      3 O          67.4479   92.2682   16.3487 O.2     1  UNL1       -0.2577
      4 O          66.2963   91.1696   15.2598 O.3     1  UNL1       -0.2940
      5 C          65.3774   90.5279   14.2629 C.3     1  UNL1        0.1538
      6 C          64.8721   91.3175   13.0920 C.3     1  UNL1        0.0611
      7 C          64.3667   92.1071   11.9210 C.3     1  UNL1        0.0051
      8 C          63.4478   91.4654   10.9241 C.3     1  UNL1        0.0022
      9 C          63.0343   90.0341   11.0981 C.3     1  UNL1        0.0268
     10 C          63.5396   89.2445   12.2691 C.3     1  UNL1        0.1420
     11 C          63.1260   87.8131   12.4432 C.ar    1  UNL1        0.0616
     12 C          62.2071   87.1715   11.4462 C.ar    1  UNL1        0.1407
     13 F          61.5306   87.6481   10.1951 F       1  UNL1       -0.2043
     14 C          61.7935   85.7402   11.6203 C.ar    1  UNL1        0.0319
     15 C          62.2988   84.9505   12.7912 C.ar    1  UNL1        0.0351
     16 C          63.2178   85.5922   13.7882 C.ar    1  UNL1        0.1737
     17 F          63.7231   84.8026   14.9591 F       1  UNL1       -0.2010
     18 C          63.6313   87.0236   13.6141 C.ar    1  UNL1        0.1654
     19 O          64.5502   87.6652   14.6110 O.3     1  UNL1       -0.4733
     20 C          64.9638   89.0965   14.4370 C.3     1  UNL1        0.2075
     21 C          64.4585   89.8862   13.2660 C.3     1  UNL1        0.0732
     22 C          65.2857   92.7488   12.9179 C.3     1  UNL1        0.1538
     23 O          66.2046   93.3905   13.9149 O.3     1  UNL1       -0.2940
     24 S          62.6207   88.6028   11.2722 S.O2    1  UNL1        0.0093
     25 O          62.9285   88.3712   10.5743 O.2     1  UNL1       -0.1684
     26 O          61.2875   88.5954   11.9596 O.2     1  UNL1       -0.1684
     27 C          61.7018   87.9611   10.2753 C.ar    1  UNL1        0.1059
     28 C          62.2526   87.0221    9.2435 C.ar    1  UNL1        0.0192
     29 C          61.3337   86.3804    8.2465 C.ar    1  UNL1        0.0127
     30 C          59.8639   86.6778    8.2814 C.ar    1  UNL1        0.0578
     31 CL         58.9450   86.0361    7.2845 Cl      1  UNL1       -0.0822
     32 C          59.3130   87.6169    9.3133 C.ar    1  UNL1        0.0127
     33 C          60.2319   88.2586   10.3102 C.ar    1  UNL1        0.0192
@<TRIPOS>BOND
     1     1     2    1
     2     2     3    2
     3     2     4    1
     4     4     5    1
     5     5     6    1
     6     6     7    1
     7     7     8    1
     8     8     9    1
     9     9    10    1
    10    10    24    1
    11    24    25    2
    12    24    26    2
    13    24    27    1
    14    27    28   ar
    15    28    29   ar
    16    29    30   ar
    17    30    31    1
    18    30    32   ar
    19    32    33   ar
    20    10    11    1
    21    11    12   ar
    22    12    13    1
    23    12    14   ar
    24    14    15   ar
    25    15    16   ar
    26    16    17    1
    27    16    18   ar
    28    18    19    1
    29    19    20    1
    30    21    20    1
    31     6    22    1
    32    22    23    1
    33    23     2    1
    34    21     6    1
    35    21    10    1
    36    33    27   ar
    37    18    11   ar
@<TRIPOS>MOLECULE
*****
 33 37 0 0 0
SMALL
GASTEIGER

@<TRIPOS>ATOM
      1 C          67.1387   96.8530   10.1419 C.3     1  UNL1        0.1287
      2 P          66.3741   95.5659   10.2366 P.3     1  UNL1        0.3439
      3 O          66.0869   95.9353    8.8114 O.2     1  UNL1       -0.2577
      4 O          65.5098   94.4072    9.8364 O.3     1  UNL1       -0.2940
      5 C          65.1983   93.3260   10.8284 C.3     1  UNL1        0.1538
      6 C          65.7511   93.4036   12.2206 C.3     1  UNL1        0.0611
      7 C          66.3039   93.4812   13.6128 C.3     1  UNL1        0.0051
      8 C          65.9923   92.4001   14.6048 C.3     1  UNL1        0.0022
      9 C          65.1280   91.2413   14.2046 C.3     1  UNL1        0.0268
     10 C          64.5752   91.1637   12.8124 C.3     1  UNL1        0.1420
     11 C          63.7109   90.0049   12.4121 C.ar    1  UNL1        0.0616
     12 C          63.3993   88.9238   13.4041 C.ar    1  UNL1        0.1407
     13 F          63.7715   88.6862   14.8377 F       1  UNL1       -0.2043
     14 C          62.5350   87.7650   13.0039 C.ar    1  UNL1        0.0319
     15 C          61.9822   87.6874   11.6116 C.ar    1  UNL1        0.0351
     16 C          62.2937   88.7685   10.6196 C.ar    1  UNL1        0.1737
     17 F          61.7410   88.6909    9.2273 F       1  UNL1       -0.2010
     18 C          63.1581   89.9273   11.0199 C.ar    1  UNL1        0.1654
     19 O          63.4696   91.0085   10.0279 O.3     1  UNL1       -0.4733
     20 C          64.3339   92.1672   10.4281 C.3     1  UNL1        0.2075
     21 C          64.8868   92.2449   11.8204 C.3     1  UNL1        0.0732
     22 C          66.6154   94.5624   12.6208 C.3     1  UNL1        0.1538
     23 O          66.9269   95.6435   11.6288 O.3     1  UNL1       -0.2940
     24 S          64.2637   90.0826   13.8044 S.O2    1  UNL1        0.0093
     25 O          64.8621   89.6175   14.0515 O.2     1  UNL1       -0.1684
     26 O          62.7901   90.2247   14.0454 O.2     1  UNL1       -0.1684
     27 C          63.9522   89.0014   14.7964 C.ar    1  UNL1        0.1059
     28 C          64.5133   87.6236   14.6051 C.ar    1  UNL1        0.0192
     29 C          64.2018   86.5425   15.5971 C.ar    1  UNL1        0.0127
     30 C          63.3291   86.8392   16.7804 C.ar    1  UNL1        0.0578
     31 CL         63.0176   85.7580   17.7724 Cl      1  UNL1       -0.0822
     32 C          62.7679   88.2170   16.9718 C.ar    1  UNL1        0.0127
     33 C          63.0794   89.2982   15.9798 C.ar    1  UNL1        0.0192
@<TRIPOS>BOND
     1     1     2    1
     2     2     3    2
     3     2     4    1
     4     4     5    1
     5     5     6    1
     6     6     7    1
     7     7     8    1
     8     8     9    1
     9     9    10    1
    10    10    24    1
    11    24    25    2
    12    24    26    2
    13    24    27    1
    14    27    28   ar
    15    28    29   ar
    16    29    30   ar
    17    30    31    1
    18    30    32   ar
    19    32    33   ar
    20    10    11    1
    21    11    12   ar
    22    12    13    1
    23    12    14   ar
    24    14    15   ar
    25    15    16   ar
    26    16    17    1
    27    16    18   ar
    28    18    19    1
    29    19    20    1
    30    21    20    1
    31     6    22    1
    32    22    23    1
    33    23     2    1
    34    21     6    1
    35    21    10    1
    36    33    27   ar
    37    18    11   ar
@<TRIPOS>MOLECULE
*****
 33 37 0 0 0
SMALL
GASTEIGER

@<TRIPOS>ATOM
      1 C          62.7751   80.1263   13.0983 C.3     1  UNL1        0.1287
      2 P          62.7262   81.5834   12.7452 P.3     1  UNL1        0.3439
      3 O          62.0380   81.0015   11.5461 O.2     1  UNL1       -0.2577
      4 O          62.4383   82.8383   11.9757 O.3     1  UNL1       -0.2940
      5 C          62.8556   84.1691   12.5278 C.3     1  UNL1        0.1538
      6 C          63.5607   84.2449   13.8495 C.3     1  UNL1        0.0611
      7 C          64.2659   84.3208   15.1712 C.3     1  UNL1        0.0051
      8 C          64.6832   85.6516   15.7234 C.3     1  UNL1        0.0022
      9 C          64.3953   86.9065   14.9539 C.3     1  UNL1        0.0268
     10 C          63.6901   86.8307   13.6322 C.3     1  UNL1        0.1420
     11 C          63.4022   88.0856   12.8626 C.ar    1  UNL1        0.0616
     12 C          63.8194   89.4164   13.4147 C.ar    1  UNL1        0.1407
     13 F          64.5218   89.8512   14.6668 F       1  UNL1       -0.2043
     14 C          63.5316   90.6713   12.6452 C.ar    1  UNL1        0.0319
     15 C          62.8263   90.5955   11.3234 C.ar    1  UNL1        0.0351
     16 C          62.4091   89.2647   10.7712 C.ar    1  UNL1        0.1737
     17 F          61.7039   89.1889    9.4496 F       1  UNL1       -0.2010
     18 C          62.6970   88.0098   11.5409 C.ar    1  UNL1        0.1654
     19 O          62.2797   86.6790   10.9887 O.3     1  UNL1       -0.4733
     20 C          62.5676   85.4241   11.7582 C.3     1  UNL1        0.2075
     21 C          63.2728   85.4999   13.0800 C.3     1  UNL1        0.0732
     22 C          63.8486   82.9900   14.6191 C.3     1  UNL1        0.1538
     23 O          63.4314   81.6592   14.0669 O.3     1  UNL1       -0.2940
     24 S          64.1074   88.1614   14.1843 S.O2    1  UNL1        0.0093
     25 O          64.5797   88.6213   13.7361 O.2     1  UNL1       -0.1684
     26 O          63.4470   88.2194   15.5299 O.2     1  UNL1       -0.1684
     27 C          64.5247   89.4922   14.7365 C.ar    1  UNL1        0.1059
     28 C          65.8417   90.0897   14.3386 C.ar    1  UNL1        0.0192
     29 C          66.2590   91.4205   14.8908 C.ar    1  UNL1        0.0127
     30 C          65.3592   92.1538   15.8408 C.ar    1  UNL1        0.0578
     31 CL         65.7765   93.4846   16.3930 Cl      1  UNL1       -0.0822
     32 C          64.0421   91.5563   16.2388 C.ar    1  UNL1        0.0127
     33 C          63.6248   90.2255   15.6866 C.ar    1  UNL1        0.0192
@<TRIPOS>BOND
     1     1     2    1
     2     2     3    2
     3     2     4    1
     4     4     5    1
     5     5     6    1
     6     6     7    1
     7     7     8    1
     8     8     9    1
     9     9    10    1
    10    10    24    1
    11    24    25    2
    12    24    26    2
    13    24    27    1
    14    27    28   ar
    15    28    29   ar
    16    29    30   ar
    17    30    31    1
    18    30    32   ar
    19    32    33   ar
    20    10    11    1
    21    11    12   ar
    22    12    13    1
    23    12    14   ar
    24    14    15   ar
    25    15    16   ar
    26    16    17    1
    27    16    18   ar
    28    18    19    1
    29    19    20    1
    30    21    20    1
    31     6    22    1
    32    22    23    1
    33    23     2    1
    34    21     6    1
    35    21    10    1
    36    33    27   ar
    37    18    11   ar
@<TRIPOS>MOLECULE
*****
 33 37 0 0 0
SMALL
GASTEIGER

@<TRIPOS>ATOM
      1 C          58.6543   87.2719    6.6701 C.3     1  UNL1        0.1287
      2 P          59.5289   87.0859    7.8746 P.3     1  UNL1        0.3439
      3 O          59.1886   85.6557    7.5763 O.2     1  UNL1       -0.2577
      4 O          60.2852   86.4032    8.9754 O.3     1  UNL1       -0.2940
      5 C          61.0781   87.2152    9.9561 C.3     1  UNL1        0.1538
      6 C          61.1147   88.7099    9.8361 C.3     1  UNL1        0.0611
      7 C          61.1513   90.2046    9.7160 C.3     1  UNL1        0.0051
      8 C          61.9442   91.0167   10.6968 C.3     1  UNL1        0.0022
      9 C          62.7005   90.3340   11.7976 C.3     1  UNL1        0.0268
     10 C          62.6639   88.8393   11.9177 C.3     1  UNL1        0.1420
     11 C          63.4203   88.1566   13.0186 C.ar    1  UNL1        0.0616
     12 C          64.2132   88.9686   13.9993 C.ar    1  UNL1        0.1407
     13 F          64.4651   90.4370   14.1736 F       1  UNL1       -0.2043
     14 C          64.9695   88.2859   15.1001 C.ar    1  UNL1        0.0319
     15 C          64.9330   86.7911   15.2203 C.ar    1  UNL1        0.0351
     16 C          64.1401   85.9791   14.2395 C.ar    1  UNL1        0.1737
     17 F          64.1035   84.4844   14.3595 F       1  UNL1       -0.2010
     18 C          63.3837   86.6619   13.1386 C.ar    1  UNL1        0.1654
     19 O          62.5908   85.8498   12.1578 O.3     1  UNL1       -0.4733
     20 C          61.8345   86.5325   11.0570 C.3     1  UNL1        0.2075
     21 C          61.8710   88.0273   10.9369 C.3     1  UNL1        0.0732
     22 C          60.3584   89.3926    8.7353 C.3     1  UNL1        0.1538
     23 O          59.5655   88.5806    7.7545 O.3     1  UNL1       -0.2940
     24 S          63.4568   89.6513   12.8984 S.O2    1  UNL1        0.0093
     25 O          64.1957   89.8691   12.6933 O.2     1  UNL1       -0.1684
     26 O          62.5300   89.8165   14.0662 O.2     1  UNL1       -0.1684
     27 C          64.2497   90.4634   13.8792 C.ar    1  UNL1        0.1059
     28 C          65.6314   90.9276   13.5250 C.ar    1  UNL1        0.0192
     29 C          66.4243   91.7396   14.5057 C.ar    1  UNL1        0.0127
     30 C          65.8355   92.0875   15.8407 C.ar    1  UNL1        0.0578
     31 CL         66.6284   92.8995   16.8215 Cl      1  UNL1       -0.0822
     32 C          64.4538   91.6233   16.1951 C.ar    1  UNL1        0.0127
     33 C          63.6609   90.8112   15.2143 C.ar    1  UNL1        0.0192
@<TRIPOS>BOND
     1     1     2    1
     2     2     3    2
     3     2     4    1
     4     4     5    1
     5     5     6    1
     6     6     7    1
     7     7     8    1
     8     8     9    1
     9     9    10    1
    10    10    24    1
    11    24    25    2
    12    24    26    2
    13    24    27    1
    14    27    28   ar
    15    28    29   ar
    16    29    30   ar
    17    30    31    1
    18    30    32   ar
    19    32    33   ar
    20    10    11    1
    21    11    12   ar
    22    12    13    1
    23    12    14   ar
    24    14    15   ar
    25    15    16   ar
    26    16    17    1
    27    16    18   ar
    28    18    19    1
    29    19    20    1
    30    21    20    1
    31     6    22    1
    32    22    23    1
    33    23     2    1
    34    21     6    1
    35    21    10    1
    36    33    27   ar
    37    18    11   ar
@<TRIPOS>MOLECULE
*****
 33 37 0 0 0
SMALL
GASTEIGER

@<TRIPOS>ATOM
      1 C          59.6769   87.0729    9.2972 C.3     1  UNL1        0.1287
      2 P          60.5950   88.2400    9.5095 P.3     1  UNL1        0.3439
      3 O          59.9136   88.6713    8.2446 O.2     1  UNL1       -0.2577
      4 O          61.2765   89.5568    9.2824 O.3     1  UNL1       -0.2940
      5 C          62.3204   90.0371   10.2465 C.3     1  UNL1        0.1538
      6 C          62.6830   89.2006   11.4376 C.3     1  UNL1        0.0611
      7 C          63.0455   88.3640   12.6287 C.3     1  UNL1        0.0051
      8 C          64.0895   88.8443   13.5927 C.3     1  UNL1        0.0022
      9 C          64.7710   90.1611   13.3657 C.3     1  UNL1        0.0268
     10 C          64.4084   90.9977   12.1747 C.3     1  UNL1        0.1420
     11 C          65.0899   92.3146   11.9476 C.ar    1  UNL1        0.0616
     12 C          66.1339   92.7948   12.9117 C.ar    1  UNL1        0.1407
     13 F          66.7266   92.2341   14.1703 F       1  UNL1       -0.2043
     14 C          66.8153   94.1116   12.6847 C.ar    1  UNL1        0.0319
     15 C          66.4528   94.9483   11.4935 C.ar    1  UNL1        0.0351
     16 C          65.4088   94.4680   10.5295 C.ar    1  UNL1        0.1737
     17 F          65.0463   95.3045    9.3384 F       1  UNL1       -0.2010
     18 C          64.7273   93.1511   10.7565 C.ar    1  UNL1        0.1654
     19 O          63.6834   92.6708    9.7924 O.3     1  UNL1       -0.4733
     20 C          63.0019   91.3540   10.0195 C.3     1  UNL1        0.2075
     21 C          63.3644   90.5174   11.2106 C.3     1  UNL1        0.0732
     22 C          62.0015   87.8838   11.6646 C.3     1  UNL1        0.1538
     23 O          60.9575   87.4035   10.7005 O.3     1  UNL1       -0.2940
     24 S          65.4524   91.4779   13.1387 S.O2    1  UNL1        0.0093
     25 O          66.2181   91.3965   12.9325 O.2     1  UNL1       -0.1684
     26 O          64.6604   92.0104   14.2959 O.2     1  UNL1       -0.1684
     27 C          66.4964   91.9582   14.1028 C.ar    1  UNL1        0.1059
     28 C          67.9490   91.7176   13.8166 C.ar    1  UNL1        0.0192
     29 C          68.9930   92.1979   14.7806 C.ar    1  UNL1        0.0127
     30 C          68.5844   92.9188   16.0309 C.ar    1  UNL1        0.0578
     31 CL         69.6284   93.3990   16.9950 Cl      1  UNL1       -0.0822
     32 C          67.1317   93.1594   16.3172 C.ar    1  UNL1        0.0127
     33 C          66.0877   92.6791   15.3531 C.ar    1  UNL1        0.0192
@<TRIPOS>BOND
     1     1     2    1
     2     2     3    2
     3     2     4    1
     4     4     5    1
     5     5     6    1
     6     6     7    1
     7     7     8    1
     8     8     9    1
     9     9    10    1
    10    10    24    1
    11    24    25    2
    12    24    26    2
    13    24    27    1
    14    27    28   ar
    15    28    29   ar
    16    29    30   ar
    17    30    31    1
    18    30    32   ar
    19    32    33   ar
    20    10    11    1
    21    11    12   ar
    22    12    13    1
    23    12    14   ar
    24    14    15   ar
    25    15    16   ar
    26    16    17    1
    27    16    18   ar
    28    18    19    1
    29    19    20    1
    30    21    20    1
    31     6    22    1
    32    22    23    1
    33    23     2    1
    34    21     6    1
    35    21    10    1
    36    33    27   ar
    37    18    11   ar
@<TRIPOS>MOLECULE
*****
 33 37 0 0 0
SMALL
GASTEIGER

@<TRIPOS>ATOM
      1 C          59.6007   90.8688    5.6947 C.3     1  UNL1        0.1287
      2 P          59.5577   91.6754    4.4307 P.3     1  UNL1        0.3439
      3 O          58.1053   91.6997    4.8047 O.2     1  UNL1       -0.2577
      4 O          59.0104   92.4905    3.2967 O.3     1  UNL1       -0.2940
      5 C          59.9304   93.0011    2.2276 C.3     1  UNL1        0.1538
      6 C          61.3977   92.6966    2.2925 C.3     1  UNL1        0.0611
      7 C          62.8650   92.3922    2.3575 C.3     1  UNL1        0.0051
      8 C          63.7850   92.9028    1.2884 C.3     1  UNL1        0.0022
      9 C          63.2376   93.7178    0.1544 C.3     1  UNL1        0.0268
     10 C          61.7703   94.0223    0.0894 C.3     1  UNL1        0.1420
     11 C          61.2229   94.8374   -1.0447 C.ar    1  UNL1        0.0616
     12 C          62.1429   95.3480   -2.1137 C.ar    1  UNL1        0.1407
     13 F          63.6187   95.2377   -2.3584 F       1  UNL1       -0.2043
     14 C          61.5956   96.1630   -3.2478 C.ar    1  UNL1        0.0319
     15 C          60.1282   96.4675   -3.3128 C.ar    1  UNL1        0.0351
     16 C          59.2082   95.9569   -2.2437 C.ar    1  UNL1        0.1737
     17 F          57.7409   96.2614   -2.3086 F       1  UNL1       -0.2010
     18 C          59.7556   95.1418   -1.1096 C.ar    1  UNL1        0.1654
     19 O          58.8356   94.6312   -0.0405 O.3     1  UNL1       -0.4733
     20 C          59.3830   93.8162    1.0935 C.3     1  UNL1        0.2075
     21 C          60.8504   93.5117    1.1585 C.3     1  UNL1        0.0732
     22 C          61.9450   91.8816    3.4266 C.3     1  UNL1        0.1538
     23 O          61.0251   91.3710    4.4956 O.3     1  UNL1       -0.2940
     24 S          62.6903   94.5329   -0.9797 S.O2    1  UNL1        0.0093
     25 O          62.9764   95.2732   -0.9051 O.2     1  UNL1       -0.1684
     26 O          62.7961   93.3891   -1.9443 O.2     1  UNL1       -0.1684
     27 C          63.6103   95.0435   -2.0487 C.ar    1  UNL1        0.1059
     28 C          64.3377   96.3409   -1.8554 C.ar    1  UNL1        0.0192
     29 C          65.2577   96.8515   -2.9245 C.ar    1  UNL1        0.0127
     30 C          65.4502   96.0647   -4.1869 C.ar    1  UNL1        0.0578
     31 CL         66.3702   96.5753   -5.2560 Cl      1  UNL1       -0.0822
     32 C          64.7228   94.7671   -4.3803 C.ar    1  UNL1        0.0127
     33 C          63.8028   94.2565   -3.3112 C.ar    1  UNL1        0.0192
@<TRIPOS>BOND
     1     1     2    1
     2     2     3    2
     3     2     4    1
     4     4     5    1
     5     5     6    1
     6     6     7    1
     7     7     8    1
     8     8     9    1
     9     9    10    1
    10    10    24    1
    11    24    25    2
    12    24    26    2
    13    24    27    1
    14    27    28   ar
    15    28    29   ar
    16    29    30   ar
    17    30    31    1
    18    30    32   ar
    19    32    33   ar
    20    10    11    1
    21    11    12   ar
    22    12    13    1
    23    12    14   ar
    24    14    15   ar
    25    15    16   ar
    26    16    17    1
    27    16    18   ar
    28    18    19    1
    29    19    20    1
    30    21    20    1
    31     6    22    1
    32    22    23    1
    33    23     2    1
    34    21     6    1
    35    21    10    1
    36    33    27   ar
    37    18    11   ar
@<TRIPOS>MOLECULE
*****
 33 37 0 0 0
SMALL
GASTEIGER

@<TRIPOS>ATOM
      1 C          59.3902   91.5590    5.5411 C.3     1  UNL1        0.1287
      2 P          59.3351   92.0744    4.1335 P.3     1  UNL1        0.3439
      3 O          57.8709   92.0469    4.4583 O.2     1  UNL1       -0.2577
      4 O          58.7715   92.5802    2.8387 O.3     1  UNL1       -0.2940
      5 C          59.6912   92.9345    1.7079 C.3     1  UNL1        0.1538
      6 C          61.1745   92.7830    1.8719 C.3     1  UNL1        0.0611
      7 C          62.6577   92.6314    2.0359 C.3     1  UNL1        0.0051
      8 C          63.5774   92.9857    0.9051 C.3     1  UNL1        0.0022
      9 C          63.0138   93.4915   -0.3897 C.3     1  UNL1        0.0268
     10 C          61.5306   93.6431   -0.5536 C.3     1  UNL1        0.1420
     11 C          60.9669   94.1490   -1.8484 C.ar    1  UNL1        0.0616
     12 C          61.8866   94.5033   -2.9792 C.ar    1  UNL1        0.1407
     13 F          63.3756   94.4764   -3.1589 F       1  UNL1       -0.2043
     14 C          61.3230   95.0092   -4.2740 C.ar    1  UNL1        0.0319
     15 C          59.8397   95.1608   -4.4380 C.ar    1  UNL1        0.0351
     16 C          58.9200   94.8065   -3.3072 C.ar    1  UNL1        0.1737
     17 F          57.4368   94.9580   -3.4712 F       1  UNL1       -0.2010
     18 C          59.4837   94.3006   -2.0124 C.ar    1  UNL1        0.1654
     19 O          58.5640   93.9463   -0.8816 O.3     1  UNL1       -0.4733
     20 C          59.1276   93.4404    0.4131 C.3     1  UNL1        0.2075
     21 C          60.6109   93.2888    0.5771 C.3     1  UNL1        0.0732
     22 C          61.7380   92.2771    3.1667 C.3     1  UNL1        0.1538
     23 O          60.8183   91.9228    4.2974 O.3     1  UNL1       -0.2940
     24 S          62.4502   93.9974   -1.6844 S.O2    1  UNL1        0.0093
     25 O          62.5697   93.4531   -2.2544 O.2     1  UNL1       -0.1684
     26 O          62.9005   95.3917   -1.3629 O.2     1  UNL1       -0.1684
     27 C          63.3699   94.3517   -2.8152 C.ar    1  UNL1        0.1059
     28 C          63.7930   93.2986   -3.7959 C.ar    1  UNL1        0.0192
     29 C          64.7127   93.6529   -4.9267 C.ar    1  UNL1        0.0127
     30 C          65.2093   95.0603   -5.0768 C.ar    1  UNL1        0.0578
     31 CL         66.1290   95.4146   -6.2075 Cl      1  UNL1       -0.0822
     32 C          64.7862   96.1135   -4.0960 C.ar    1  UNL1        0.0127
     33 C          63.8665   95.7592   -2.9652 C.ar    1  UNL1        0.0192
@<TRIPOS>BOND
     1     1     2    1
     2     2     3    2
     3     2     4    1
     4     4     5    1
     5     5     6    1
     6     6     7    1
     7     7     8    1
     8     8     9    1
     9     9    10    1
    10    10    24    1
    11    24    25    2
    12    24    26    2
    13    24    27    1
    14    27    28   ar
    15    28    29   ar
    16    29    30   ar
    17    30    31    1
    18    30    32   ar
    19    32    33   ar
    20    10    11    1
    21    11    12   ar
    22    12    13    1
    23    12    14   ar
    24    14    15   ar
    25    15    16   ar
    26    16    17    1
    27    16    18   ar
    28    18    19    1
    29    19    20    1
    30    21    20    1
    31     6    22    1
    32    22    23    1
    33    23     2    1
    34    21     6    1
    35    21    10    1
    36    33    27   ar
    37    18    11   ar
@<TRIPOS>MOLECULE
*****
 33 37 0 0 0
SMALL
GASTEIGER

@<TRIPOS>ATOM
      1 C          53.2689   96.2240   -6.2844 C.3     1  UNL1        0.1287
      2 P          54.6972   95.8620   -6.0033 P.3     1  UNL1        0.3439
      3 O          54.7791   96.1191   -7.4789 O.2     1  UNL1       -0.2577
      4 O          56.1539   95.5892   -6.2347 O.3     1  UNL1       -0.2940
      5 C          57.0326   95.1851   -5.0882 C.3     1  UNL1        0.1538
      6 C          56.4546   95.0537   -3.7103 C.3     1  UNL1        0.0611
      7 C          55.8767   94.9223   -2.3324 C.3     1  UNL1        0.0051
      8 C          56.7554   94.5182   -1.1859 C.3     1  UNL1        0.0022
      9 C          58.2121   94.2454   -1.4173 C.3     1  UNL1        0.0268
     10 C          58.7901   94.3768   -2.7952 C.3     1  UNL1        0.1420
     11 C          60.2468   94.1041   -3.0266 C.ar    1  UNL1        0.0616
     12 C          61.1256   93.6999   -1.8801 C.ar    1  UNL1        0.1407
     13 F          60.8910   93.4779   -0.4153 F       1  UNL1       -0.2043
     14 C          62.5823   93.4272   -2.1115 C.ar    1  UNL1        0.0319
     15 C          63.1603   93.5586   -3.4895 C.ar    1  UNL1        0.0351
     16 C          62.2816   93.9627   -4.6360 C.ar    1  UNL1        0.1737
     17 F          62.8595   94.0941   -6.0139 F       1  UNL1       -0.2010
     18 C          60.8248   94.2355   -4.4045 C.ar    1  UNL1        0.1654
     19 O          59.9461   94.6396   -5.5510 O.3     1  UNL1       -0.4733
     20 C          58.4894   94.9124   -5.3196 C.3     1  UNL1        0.2075
     21 C          57.9113   94.7810   -3.9417 C.3     1  UNL1        0.0732
     22 C          54.9979   95.3265   -3.4789 C.3     1  UNL1        0.1538
     23 O          54.1192   95.7306   -4.6254 O.3     1  UNL1       -0.2940
     24 S          59.6688   93.9727   -1.6487 S.O2    1  UNL1        0.0093
     25 O          60.1412   94.5275   -1.3255 O.2     1  UNL1       -0.1684
     26 O          59.3580   92.5190   -1.4480 O.2     1  UNL1       -0.1684
     27 C          60.5476   93.5686   -0.5022 C.ar    1  UNL1        0.1059
     28 C          60.7431   92.1161   -0.1828 C.ar    1  UNL1        0.0192
     29 C          61.6218   91.7120    0.9637 C.ar    1  UNL1        0.0127
     30 C          62.3050   92.7603    1.7909 C.ar    1  UNL1        0.0578
     31 CL         63.1838   92.3562    2.9374 Cl      1  UNL1       -0.0822
     32 C          62.1095   94.2129    1.4715 C.ar    1  UNL1        0.0127
     33 C          61.2308   94.6170    0.3250 C.ar    1  UNL1        0.0192
@<TRIPOS>BOND
     1     1     2    1
     2     2     3    2
     3     2     4    1
     4     4     5    1
     5     5     6    1
     6     6     7    1
     7     7     8    1
     8     8     9    1
     9     9    10    1
    10    10    24    1
    11    24    25    2
    12    24    26    2
    13    24    27    1
    14    27    28   ar
    15    28    29   ar
    16    29    30   ar
    17    30    31    1
    18    30    32   ar
    19    32    33   ar
    20    10    11    1
    21    11    12   ar
    22    12    13    1
    23    12    14   ar
    24    14    15   ar
    25    15    16   ar
    26    16    17    1
    27    16    18   ar
    28    18    19    1
    29    19    20    1
    30    21    20    1
    31     6    22    1
    32    22    23    1
    33    23     2    1
    34    21     6    1
    35    21    10    1
    36    33    27   ar
    37    18    11   ar
@<TRIPOS>MOLECULE
*****
 33 37 0 0 0
SMALL
GASTEIGER

@<TRIPOS>ATOM
      1 C          55.5474   91.7219   -5.6355 C.3     1  UNL1        0.1287
      2 P          56.8559   92.4089   -5.3786 P.3     1  UNL1        0.3439
      3 O          56.7754   92.5510   -6.8697 O.2     1  UNL1       -0.2577
      4 O          58.1364   93.1452   -5.6396 O.3     1  UNL1       -0.2940
      5 C          59.0429   93.5009   -4.4987 C.3     1  UNL1        0.1538
      6 C          58.6690   93.1202   -3.0968 C.3     1  UNL1        0.0611
      7 C          58.2951   92.7395   -1.6950 C.3     1  UNL1        0.0051
      8 C          59.2016   93.0951   -0.5541 C.3     1  UNL1        0.0022
      9 C          60.4821   93.8315   -0.8150 C.3     1  UNL1        0.0268
     10 C          60.8560   94.2122   -2.2168 C.3     1  UNL1        0.1420
     11 C          62.1366   94.9486   -2.4779 C.ar    1  UNL1        0.0616
     12 C          63.0431   95.3042   -1.3369 C.ar    1  UNL1        0.1407
     13 F          62.9858   95.0873    0.1462 F       1  UNL1       -0.2043
     14 C          64.3236   96.0405   -1.5979 C.ar    1  UNL1        0.0319
     15 C          64.6976   96.4213   -2.9998 C.ar    1  UNL1        0.0351
     16 C          63.7910   96.0656   -4.1407 C.ar    1  UNL1        0.1737
     17 F          64.1650   96.4463   -5.5425 F       1  UNL1       -0.2010
     18 C          62.5105   95.3292   -3.8797 C.ar    1  UNL1        0.1654
     19 O          61.6039   94.9736   -5.0206 O.3     1  UNL1       -0.4733
     20 C          60.3235   94.2373   -4.7597 C.3     1  UNL1        0.2075
     21 C          59.9495   93.8565   -3.3578 C.3     1  UNL1        0.0732
     22 C          57.3885   92.3838   -2.8359 C.3     1  UNL1        0.1538
     23 O          56.4820   92.0282   -3.9768 O.3     1  UNL1       -0.2940
     24 S          61.7626   94.5678   -1.0759 S.O2    1  UNL1        0.0093
     25 O          61.6269   95.2515   -0.6891 O.2     1  UNL1       -0.1684
     26 O          62.7304   93.4236   -1.0110 O.2     1  UNL1       -0.1684
     27 C          62.6692   94.9235    0.0650 C.ar    1  UNL1        0.1059
     28 C          62.5270   96.2500    0.7505 C.ar    1  UNL1        0.0192
     29 C          63.4335   96.6057    1.8914 C.ar    1  UNL1        0.0127
     30 C          64.4823   95.6348    2.3468 C.ar    1  UNL1        0.0578
     31 CL         65.3888   95.9904    3.4877 Cl      1  UNL1       -0.0822
     32 C          64.6245   94.3081    1.6613 C.ar    1  UNL1        0.0127
     33 C          63.7179   93.9525    0.5204 C.ar    1  UNL1        0.0192
@<TRIPOS>BOND
     1     1     2    1
     2     2     3    2
     3     2     4    1
     4     4     5    1
     5     5     6    1
     6     6     7    1
     7     7     8    1
     8     8     9    1
     9     9    10    1
    10    10    24    1
    11    24    25    2
    12    24    26    2
    13    24    27    1
    14    27    28   ar
    15    28    29   ar
    16    29    30   ar
    17    30    31    1
    18    30    32   ar
    19    32    33   ar
    20    10    11    1
    21    11    12   ar
    22    12    13    1
    23    12    14   ar
    24    14    15   ar
    25    15    16   ar
    26    16    17    1
    27    16    18   ar
    28    18    19    1
    29    19    20    1
    30    21    20    1
    31     6    22    1
    32    22    23    1
    33    23     2    1
    34    21     6    1
    35    21    10    1
    36    33    27   ar
    37    18    11   ar
