@<TRIPOS>MOLECULE
*****
 39 42 0 0 0
SMALL
GASTEIGER

@<TRIPOS>ATOM
      1 C          62.7521   89.4860   12.0421 C.3     1  UNL1        0.0792
      2 C          63.0883   88.3805   12.9986 C.ar    1  UNL1        0.0374
      3 C          63.3261   86.9913   12.4855 C.ar    1  UNL1        0.0023
      4 C          63.6623   85.8857   13.4421 C.ar    1  UNL1        0.0181
      5 C          63.9002   84.4965   12.9290 C.ar    1  UNL1        0.0082
      6 C          64.2363   83.3911   13.8855 C.ar    1  UNL1        0.0347
      7 BR         64.4742   82.0017   13.3724 Br      1  UNL1       -0.0490
      8 C          64.3347   83.6749   15.3551 C.ar    1  UNL1        0.0082
      9 C          64.0968   85.0642   15.8682 C.ar    1  UNL1        0.0197
     10 C          63.7606   86.1696   14.9117 C.ar    1  UNL1        0.0844
     11 N          63.5228   87.5590   15.4247 N.ar    1  UNL1       -0.2119
     12 C          63.1866   88.6644   14.4682 C.ar    1  UNL1        0.2211
     13 O          62.9487   90.0537   14.9813 O.3     1  UNL1       -0.4563
     14 C          63.4968   90.4645   16.3158 C.3     1  UNL1        0.2542
     15 C          65.7800   92.0010   12.5481 C.ar    1  UNL1        0.1913
     16 C          64.7875   90.9070   12.8088 C.ar    1  UNL1        0.0394
     17 C          63.7446   90.5800   11.7814 C.ar    1  UNL1        0.0067
     18 C          63.6944   91.3469   10.4933 C.ar    1  UNL1        0.0984
     19 N          64.6870   92.4409   10.2325 N.ar    1  UNL1       -0.2079
     20 C          65.7299   92.7679   11.2599 C.ar    1  UNL1        0.2601
     21 C          66.6176   93.4821   14.5114 C.3     1  UNL1        0.2527
     22 O          66.8229   92.3280   13.5755 O.3     1  UNL1       -0.4667
     23 O          66.7224   93.8619   10.9992 O.3     1  UNL1       -0.4541
     24 C          66.3168   95.2968   11.1612 C.3     1  UNL1        0.2543
     25 C          61.4232   89.4975   11.3463 C.3     1  UNL1        0.1159
     26 O          61.1377   90.8563   11.9140 O.3     1  UNL1       -0.3820
     27 H          60.6592   91.3868   11.2579 H       1  UNL1        0.2107
     28 C          61.7087   88.1388   10.7786 C.ar    1  UNL1        0.0046
     29 C          60.9684   86.9402   11.2934 C.ar    1  UNL1       -0.0019
     30 C          61.2539   85.5814   10.7257 C.ar    1  UNL1        0.0021
     31 C          62.2797   85.4213    9.6432 C.ar    1  UNL1        0.0296
     32 C          63.0201   86.6199    9.1284 C.ar    1  UNL1        0.1399
     33 F          64.0461   86.4598    8.0458 F       1  UNL1       -0.2042
     34 C          62.7346   87.9786    9.6961 C.ar    1  UNL1        0.0276
     35 C          60.0944   89.5090   10.6505 C.3     1  UNL1        0.0491
     36 C          59.9925   89.9984    9.2363 C.3     1  UNL1        0.0750
     37 N          59.5507   89.0640    8.1492 N.3     1  UNL1       -0.2702
     38 C          59.4713   89.5470    6.7314 C.3     1  UNL1        0.0897
     39 C          59.1883   87.6466    8.4800 C.3     1  UNL1        0.0897
@<TRIPOS>BOND
     1    21    22    1
     2    22    15    1
     3    15    16   ar
     4    16    17   ar
     5     1    17    1
     6     1     2    1
     7     2     3   ar
     8     3     4   ar
     9     4     5   ar
    10     5     6   ar
    11     6     7    1
    12     6     8   ar
    13     8     9   ar
    14     9    10   ar
    15    10    11   ar
    16    11    12   ar
    17    12    13    1
    18    13    14    1
    19     1    25    1
    20    25    26    1
    21    25    35    1
    22    35    36    1
    23    36    37    1
    24    37    38    1
    25    37    39    1
    26    25    28    1
    27    28    29   ar
    28    29    30   ar
    29    30    31   ar
    30    31    32   ar
    31    32    33    1
    32    32    34   ar
    33    17    18   ar
    34    18    19   ar
    35    19    20   ar
    36    20    23    1
    37    23    24    1
    38    20    15   ar
    39    12     2   ar
    40    34    28   ar
    41    10     4   ar
    42    26    27    1
@<TRIPOS>MOLECULE
*****
 39 42 0 0 0
SMALL
GASTEIGER

@<TRIPOS>ATOM
      1 C          60.7863   95.0765   -1.6884 C.3     1  UNL1        0.0792
      2 C          61.1703   94.3057   -0.4601 C.ar    1  UNL1        0.0374
      3 C          60.1204   93.9078    0.5344 C.ar    1  UNL1        0.0023
      4 C          60.5044   93.1370    1.7627 C.ar    1  UNL1        0.0181
      5 C          59.4545   92.7391    2.7572 C.ar    1  UNL1        0.0082
      6 C          59.8386   91.9684    3.9854 C.ar    1  UNL1        0.0347
      7 BR         58.7886   91.5704    4.9801 Br      1  UNL1       -0.0490
      8 C          61.2726   91.5956    4.2190 C.ar    1  UNL1        0.0082
      9 C          62.3226   91.9935    3.2244 C.ar    1  UNL1        0.0197
     10 C          61.9385   92.7642    1.9962 C.ar    1  UNL1        0.0844
     11 N          62.9884   93.1621    1.0016 N.ar    1  UNL1       -0.2119
     12 C          62.6044   93.9329   -0.2266 C.ar    1  UNL1        0.2211
     13 O          63.6543   94.3308   -1.2212 O.3     1  UNL1       -0.4563
     14 C          64.7914   95.2132   -0.7989 C.3     1  UNL1        0.2542
     15 C          63.0587   93.9057   -4.7240 C.ar    1  UNL1        0.1913
     16 C          62.1286   93.8563   -3.5483 C.ar    1  UNL1        0.0394
     17 C          61.7163   95.1259   -2.8641 C.ar    1  UNL1        0.0067
     18 C          62.2342   96.4451   -3.3558 C.ar    1  UNL1        0.0984
     19 N          63.1643   96.4945   -4.5316 N.ar    1  UNL1       -0.2079
     20 C          63.5765   95.2249   -5.2157 C.ar    1  UNL1        0.2601
     21 C          64.8973   92.1767   -5.3405 C.3     1  UNL1        0.2527
     22 O          63.4709   92.6361   -5.4081 O.3     1  UNL1       -0.4667
     23 O          64.5066   95.2743   -6.3915 O.3     1  UNL1       -0.4541
     24 C          65.8631   95.8984   -6.2490 C.3     1  UNL1        0.2543
     25 C          59.4721   95.7978   -1.7407 C.3     1  UNL1        0.1159
     26 O          59.9777   96.7918   -0.7376 O.3     1  UNL1       -0.3820
     27 H          59.6339   97.6727   -0.9537 H       1  UNL1        0.2107
     28 C          58.9665   94.8038   -2.7439 C.ar    1  UNL1        0.0046
     29 C          58.6743   93.3945   -2.3217 C.ar    1  UNL1       -0.0019
     30 C          58.1687   92.4005   -3.3249 C.ar    1  UNL1        0.0021
     31 C          57.9553   92.8159   -4.7503 C.ar    1  UNL1        0.0296
     32 C          58.2476   94.2252   -5.1725 C.ar    1  UNL1        0.1399
     33 F          58.0342   94.6406   -6.5981 F       1  UNL1       -0.2042
     34 C          58.7532   95.2192   -4.1694 C.ar    1  UNL1        0.0276
     35 C          58.1580   96.5191   -1.7931 C.3     1  UNL1        0.0491
     36 C          57.0354   96.0989   -0.8914 C.3     1  UNL1        0.0750
     37 N          55.6383   96.0011   -1.4287 N.3     1  UNL1       -0.2702
     38 C          54.5404   96.8199   -0.8169 C.3     1  UNL1        0.0897
     39 C          55.3391   95.0846   -2.5778 C.3     1  UNL1        0.0897
@<TRIPOS>BOND
     1    21    22    1
     2    22    15    1
     3    15    16   ar
     4    16    17   ar
     5     1    17    1
     6     1     2    1
     7     2     3   ar
     8     3     4   ar
     9     4     5   ar
    10     5     6   ar
    11     6     7    1
    12     6     8   ar
    13     8     9   ar
    14     9    10   ar
    15    10    11   ar
    16    11    12   ar
    17    12    13    1
    18    13    14    1
    19     1    25    1
    20    25    26    1
    21    25    35    1
    22    35    36    1
    23    36    37    1
    24    37    38    1
    25    37    39    1
    26    25    28    1
    27    28    29   ar
    28    29    30   ar
    29    30    31   ar
    30    31    32   ar
    31    32    33    1
    32    32    34   ar
    33    17    18   ar
    34    18    19   ar
    35    19    20   ar
    36    20    23    1
    37    23    24    1
    38    20    15   ar
    39    12     2   ar
    40    34    28   ar
    41    10     4   ar
    42    26    27    1
@<TRIPOS>MOLECULE
*****
 39 42 0 0 0
SMALL
GASTEIGER

@<TRIPOS>ATOM
      1 C          61.7789   87.8082   10.0260 C.3     1  UNL1        0.0792
      2 C          62.2590   86.4230   10.3438 C.ar    1  UNL1        0.0374
      3 C          62.2979   85.9508   11.7669 C.ar    1  UNL1        0.0023
      4 C          62.7780   84.5656   12.0847 C.ar    1  UNL1        0.0181
      5 C          62.8169   84.0933   13.5078 C.ar    1  UNL1        0.0082
      6 C          63.2969   82.7082   13.8255 C.ar    1  UNL1        0.0347
      7 BR         63.3359   82.2359   15.2487 Br      1  UNL1       -0.0490
      8 C          63.7381   81.7954   12.7201 C.ar    1  UNL1        0.0082
      9 C          63.6992   82.2676   11.2969 C.ar    1  UNL1        0.0197
     10 C          63.2192   83.6527   10.9792 C.ar    1  UNL1        0.0844
     11 N          63.1803   84.1250    9.5560 N.ar    1  UNL1       -0.2119
     12 C          62.7002   85.5101    9.2383 C.ar    1  UNL1        0.2211
     13 O          62.6613   85.9825    7.8151 O.3     1  UNL1       -0.4563
     14 C          62.5931   84.9861    6.6958 C.3     1  UNL1        0.2542
     15 C          63.7675   90.2250   12.4661 C.ar    1  UNL1        0.1913
     16 C          63.0112   89.0338   11.9571 C.ar    1  UNL1        0.0394
     17 C          62.5353   88.9993   10.5350 C.ar    1  UNL1        0.0067
     18 C          62.8157   90.1558    9.6220 C.ar    1  UNL1        0.0984
     19 N          63.5721   91.3470   10.1310 N.ar    1  UNL1       -0.2079
     20 C          64.0480   91.3816   11.5531 C.ar    1  UNL1        0.2601
     21 C          64.3397   88.9878   14.6780 C.3     1  UNL1        0.2527
     22 O          64.2434   90.2595   13.8882 O.3     1  UNL1       -0.4667
     23 O          64.8043   92.5727   12.0621 O.3     1  UNL1       -0.4541
     24 C          66.3027   92.5397   12.1228 C.3     1  UNL1        0.2543
     25 C          60.5425   88.0021    9.1992 C.3     1  UNL1        0.1159
     26 O          61.1579   87.2004    8.0908 O.3     1  UNL1       -0.3820
     27 H          60.4732   86.6648    7.6605 H       1  UNL1        0.2107
     28 C          59.9271   88.8039   10.3076 C.ar    1  UNL1        0.0046
     29 C          59.8311   90.2961   10.1899 C.ar    1  UNL1       -0.0019
     30 C          59.2157   91.0978   11.2983 C.ar    1  UNL1        0.0021
     31 C          58.6963   90.4073   12.5244 C.ar    1  UNL1        0.0296
     32 C          58.7923   88.9151   12.6420 C.ar    1  UNL1        0.1399
     33 F          58.2728   88.2244   13.8682 F       1  UNL1       -0.2042
     34 C          59.4077   88.1133   11.5337 C.ar    1  UNL1        0.0276
     35 C          59.3061   88.1961    8.3724 C.3     1  UNL1        0.0491
     36 C          59.4133   88.3263    6.8819 C.3     1  UNL1        0.0750
     37 N          59.1912   89.6575    6.2274 N.3     1  UNL1       -0.2702
     38 C          60.3616   90.4550    5.7334 C.3     1  UNL1        0.0897
     39 C          57.7986   90.1913    6.0668 C.3     1  UNL1        0.0897
@<TRIPOS>BOND
     1    21    22    1
     2    22    15    1
     3    15    16   ar
     4    16    17   ar
     5     1    17    1
     6     1     2    1
     7     2     3   ar
     8     3     4   ar
     9     4     5   ar
    10     5     6   ar
    11     6     7    1
    12     6     8   ar
    13     8     9   ar
    14     9    10   ar
    15    10    11   ar
    16    11    12   ar
    17    12    13    1
    18    13    14    1
    19     1    25    1
    20    25    26    1
    21    25    35    1
    22    35    36    1
    23    36    37    1
    24    37    38    1
    25    37    39    1
    26    25    28    1
    27    28    29   ar
    28    29    30   ar
    29    30    31   ar
    30    31    32   ar
    31    32    33    1
    32    32    34   ar
    33    17    18   ar
    34    18    19   ar
    35    19    20   ar
    36    20    23    1
    37    23    24    1
    38    20    15   ar
    39    12     2   ar
    40    34    28   ar
    41    10     4   ar
    42    26    27    1
@<TRIPOS>MOLECULE
*****
 39 42 0 0 0
SMALL
GASTEIGER

@<TRIPOS>ATOM
      1 C          58.4387   95.0149   -3.3816 C.3     1  UNL1        0.0792
      2 C          57.1895   95.2912   -4.1647 C.ar    1  UNL1        0.0374
      3 C          55.9150   95.6285   -3.4493 C.ar    1  UNL1        0.0023
      4 C          54.6658   95.9048   -4.2323 C.ar    1  UNL1        0.0181
      5 C          53.3913   96.2421   -3.5169 C.ar    1  UNL1        0.0082
      6 C          52.1422   96.5184   -4.3000 C.ar    1  UNL1        0.0347
      7 BR         50.8677   96.8557   -3.5845 Br      1  UNL1       -0.0490
      8 C          52.1675   96.4574   -5.7985 C.ar    1  UNL1        0.0082
      9 C          53.4420   96.1201   -6.5140 C.ar    1  UNL1        0.0197
     10 C          54.6911   95.8438   -5.7309 C.ar    1  UNL1        0.0844
     11 N          55.9657   95.5064   -6.4463 N.ar    1  UNL1       -0.2119
     12 C          57.2148   95.2302   -5.6633 C.ar    1  UNL1        0.2211
     13 O          58.4894   94.8928   -6.3787 O.3     1  UNL1       -0.4563
     14 C          58.5361   93.7228   -7.3163 C.3     1  UNL1        0.2542
     15 C          62.1380   94.3994   -4.6802 C.ar    1  UNL1        0.1913
     16 C          60.7944   94.1544   -4.0599 C.ar    1  UNL1        0.0394
     17 C          59.7823   95.2599   -4.0019 C.ar    1  UNL1        0.0067
     18 C          60.1137   96.6104   -4.5640 C.ar    1  UNL1        0.0984
     19 N          61.4574   96.8555   -5.1843 N.ar    1  UNL1       -0.2079
     20 C          62.4695   95.7500   -5.2424 C.ar    1  UNL1        0.2601
     21 C          63.7759   92.7828   -3.4744 C.3     1  UNL1        0.2527
     22 O          63.1501   93.2938   -4.7382 O.3     1  UNL1       -0.4667
     23 O          63.8131   95.9950   -5.8626 O.3     1  UNL1       -0.4541
     24 C          64.9779   96.3816   -5.0003 C.3     1  UNL1        0.2543
     25 C          58.3443   94.4935   -1.9783 C.3     1  UNL1        0.1159
     26 O          59.0934   95.6945   -1.4818 O.3     1  UNL1       -0.3820
     27 H          58.7355   95.9661   -0.6221 H       1  UNL1        0.2107
     28 C          57.5952   93.2926   -2.4749 C.ar    1  UNL1        0.0046
     29 C          56.4439   92.7467   -1.6834 C.ar    1  UNL1       -0.0019
     30 C          55.6948   91.5457   -2.1800 C.ar    1  UNL1        0.0021
     31 C          56.0970   90.8907   -3.4680 C.ar    1  UNL1        0.0296
     32 C          57.2483   91.4366   -4.2595 C.ar    1  UNL1        0.1399
     33 F          57.6505   90.7816   -5.5477 F       1  UNL1       -0.2042
     34 C          57.9974   92.6375   -3.7629 C.ar    1  UNL1        0.0276
     35 C          58.2499   93.9722   -0.5750 C.3     1  UNL1        0.0491
     36 C          59.3512   94.2510    0.4043 C.3     1  UNL1        0.0750
     37 N          60.2077   93.1279    0.9095 N.3     1  UNL1       -0.2702
     38 C          60.6333   93.0976    2.3476 C.3     1  UNL1        0.0897
     39 C          60.6387   92.0352   -0.0233 C.3     1  UNL1        0.0897
@<TRIPOS>BOND
     1    21    22    1
     2    22    15    1
     3    15    16   ar
     4    16    17   ar
     5     1    17    1
     6     1     2    1
     7     2     3   ar
     8     3     4   ar
     9     4     5   ar
    10     5     6   ar
    11     6     7    1
    12     6     8   ar
    13     8     9   ar
    14     9    10   ar
    15    10    11   ar
    16    11    12   ar
    17    12    13    1
    18    13    14    1
    19     1    25    1
    20    25    26    1
    21    25    35    1
    22    35    36    1
    23    36    37    1
    24    37    38    1
    25    37    39    1
    26    25    28    1
    27    28    29   ar
    28    29    30   ar
    29    30    31   ar
    30    31    32   ar
    31    32    33    1
    32    32    34   ar
    33    17    18   ar
    34    18    19   ar
    35    19    20   ar
    36    20    23    1
    37    23    24    1
    38    20    15   ar
    39    12     2   ar
    40    34    28   ar
    41    10     4   ar
    42    26    27    1
@<TRIPOS>MOLECULE
*****
 39 42 0 0 0
SMALL
GASTEIGER

@<TRIPOS>ATOM
      1 C          60.6893   94.9403    0.1469 C.3     1  UNL1        0.0792
      2 C          60.9082   93.9682    1.2681 C.ar    1  UNL1        0.0374
      3 C          59.7446   93.4936    2.0872 C.ar    1  UNL1        0.0023
      4 C          59.9635   92.5215    3.2084 C.ar    1  UNL1        0.0181
      5 C          58.8000   92.0469    4.0275 C.ar    1  UNL1        0.0082
      6 C          59.0189   91.0749    5.1487 C.ar    1  UNL1        0.0347
      7 BR         57.8553   90.6002    5.9678 Br      1  UNL1       -0.0490
      8 C          60.4014   90.5774    5.4508 C.ar    1  UNL1        0.0082
      9 C          61.5649   91.0520    4.6318 C.ar    1  UNL1        0.0197
     10 C          61.3460   92.0240    3.5106 C.ar    1  UNL1        0.0844
     11 N          62.5096   92.4987    2.6915 N.ar    1  UNL1       -0.2119
     12 C          62.2907   93.4707    1.5703 C.ar    1  UNL1        0.2211
     13 O          63.4542   93.9454    0.7512 O.3     1  UNL1       -0.4563
     14 C          64.7987   93.3005    0.9139 C.3     1  UNL1        0.2542
     15 C          57.5846   93.7279   -2.0073 C.ar    1  UNL1        0.1913
     16 C          58.8919   93.7132   -1.2720 C.ar    1  UNL1        0.0394
     17 C          59.3820   94.9551   -0.5885 C.ar    1  UNL1        0.0067
     18 C          58.5649   96.2119   -0.6403 C.ar    1  UNL1        0.0984
     19 N          57.2575   96.2268   -1.3756 N.ar    1  UNL1       -0.2079
     20 C          56.7674   94.9848   -2.0592 C.ar    1  UNL1        0.2601
     21 C          57.4039   92.2559   -4.1405 C.3     1  UNL1        0.2527
     22 O          57.0945   92.4860   -2.6909 O.3     1  UNL1       -0.4667
     23 O          55.4601   94.9996   -2.7945 O.3     1  UNL1       -0.4541
     24 C          55.1339   96.1327   -3.7216 C.3     1  UNL1        0.2543
     25 C          61.7777   95.8976   -0.2390 C.3     1  UNL1        0.1159
     26 O          61.7803   96.4559    1.1533 O.3     1  UNL1       -0.3820
     27 H          62.6892   96.6745    1.4123 H       1  UNL1        0.2107
     28 C          61.7752   95.3394   -1.6312 C.ar    1  UNL1        0.0046
     29 C          62.3323   93.9713   -1.8917 C.ar    1  UNL1       -0.0019
     30 C          62.3297   93.4130   -3.2840 C.ar    1  UNL1        0.0021
     31 C          61.7701   94.2228   -4.4157 C.ar    1  UNL1        0.0296
     32 C          61.2130   95.5909   -4.1552 C.ar    1  UNL1        0.1399
     33 F          60.6533   96.4009   -5.2870 F       1  UNL1       -0.2042
     34 C          61.2156   96.1492   -2.7630 C.ar    1  UNL1        0.0276
     35 C          62.8662   96.8549   -0.6248 C.3     1  UNL1        0.0491
     36 C          64.1951   96.7986    0.0685 C.3     1  UNL1        0.0750
     37 N          65.4592   96.7382   -0.7367 N.3     1  UNL1       -0.2702
     38 C          66.7897   96.8544   -0.0538 C.3     1  UNL1        0.0897
     39 C          65.3929   96.5616   -2.2247 C.3     1  UNL1        0.0897
@<TRIPOS>BOND
     1    21    22    1
     2    22    15    1
     3    15    16   ar
     4    16    17   ar
     5     1    17    1
     6     1     2    1
     7     2     3   ar
     8     3     4   ar
     9     4     5   ar
    10     5     6   ar
    11     6     7    1
    12     6     8   ar
    13     8     9   ar
    14     9    10   ar
    15    10    11   ar
    16    11    12   ar
    17    12    13    1
    18    13    14    1
    19     1    25    1
    20    25    26    1
    21    25    35    1
    22    35    36    1
    23    36    37    1
    24    37    38    1
    25    37    39    1
    26    25    28    1
    27    28    29   ar
    28    29    30   ar
    29    30    31   ar
    30    31    32   ar
    31    32    33    1
    32    32    34   ar
    33    17    18   ar
    34    18    19   ar
    35    19    20   ar
    36    20    23    1
    37    23    24    1
    38    20    15   ar
    39    12     2   ar
    40    34    28   ar
    41    10     4   ar
    42    26    27    1
@<TRIPOS>MOLECULE
*****
 39 42 0 0 0
SMALL
GASTEIGER

@<TRIPOS>ATOM
      1 C          59.7960   95.2090   -1.2735 C.3     1  UNL1        0.0792
      2 C          60.4329   94.3356   -0.2334 C.ar    1  UNL1        0.0374
      3 C          59.6544   93.9269    0.9818 C.ar    1  UNL1        0.0023
      4 C          60.2914   93.0535    2.0219 C.ar    1  UNL1        0.0181
      5 C          59.5129   92.6448    3.2371 C.ar    1  UNL1        0.0082
      6 C          60.1499   91.7715    4.2771 C.ar    1  UNL1        0.0347
      7 BR         59.3714   91.3627    5.4924 Br      1  UNL1       -0.0490
      8 C          61.5654   91.3070    4.1018 C.ar    1  UNL1        0.0082
      9 C          62.3439   91.7158    2.8866 C.ar    1  UNL1        0.0197
     10 C          61.7069   92.5891    1.8466 C.ar    1  UNL1        0.0844
     11 N          62.4854   92.9979    0.6313 N.ar    1  UNL1       -0.2119
     12 C          61.8484   93.8712   -0.4087 C.ar    1  UNL1        0.2211
     13 O          62.6269   94.2800   -1.6240 O.3     1  UNL1       -0.4563
     14 C          63.3142   93.2406   -2.4590 C.3     1  UNL1        0.2542
     15 C          56.0088   94.0700   -1.6046 C.ar    1  UNL1        0.1913
     16 C          57.5031   94.0067   -1.4912 C.ar    1  UNL1        0.0394
     17 C          58.3016   95.2722   -1.3869 C.ar    1  UNL1        0.0067
     18 C          57.6058   96.6010   -1.3960 C.ar    1  UNL1        0.0984
     19 N          56.1114   96.6643   -1.5094 N.ar    1  UNL1       -0.2079
     20 C          55.3129   95.3988   -1.6137 C.ar    1  UNL1        0.2601
     21 C          55.7899   91.6068   -2.4016 C.3     1  UNL1        0.2527
     22 O          55.2103   92.8044   -1.7088 O.3     1  UNL1       -0.4667
     23 O          53.8185   95.4620   -1.7271 O.3     1  UNL1       -0.4541
     24 C          53.1570   96.7094   -2.2333 C.3     1  UNL1        0.2543
     25 C          60.6534   96.0190   -2.2001 C.3     1  UNL1        0.1159
     26 O          61.3570   96.6230   -1.0211 O.3     1  UNL1       -0.3820
     27 H          62.2961   96.7438   -1.2320 H       1  UNL1        0.2107
     28 C          59.9498   95.4150   -3.3792 C.ar    1  UNL1        0.0046
     29 C          59.8571   93.9241   -3.5142 C.ar    1  UNL1       -0.0019
     30 C          59.1535   93.3201   -4.6933 C.ar    1  UNL1        0.0021
     31 C          58.5426   94.2071   -5.7373 C.ar    1  UNL1        0.0296
     32 C          58.6353   95.6981   -5.6022 C.ar    1  UNL1        0.1399
     33 F          58.0243   96.5852   -6.6462 F       1  UNL1       -0.2042
     34 C          59.3389   96.3021   -4.4231 C.ar    1  UNL1        0.0276
     35 C          61.5109   96.8290   -3.1267 C.3     1  UNL1        0.0491
     36 C          62.9990   96.8552   -2.9409 C.3     1  UNL1        0.0750
     37 N          63.9044   96.5286   -4.0914 N.3     1  UNL1       -0.2702
     38 C          65.3731   96.8174   -3.9954 C.3     1  UNL1        0.0897
     39 C          63.3410   95.9132   -5.3379 C.3     1  UNL1        0.0897
@<TRIPOS>BOND
     1    21    22    1
     2    22    15    1
     3    15    16   ar
     4    16    17   ar
     5     1    17    1
     6     1     2    1
     7     2     3   ar
     8     3     4   ar
     9     4     5   ar
    10     5     6   ar
    11     6     7    1
    12     6     8   ar
    13     8     9   ar
    14     9    10   ar
    15    10    11   ar
    16    11    12   ar
    17    12    13    1
    18    13    14    1
    19     1    25    1
    20    25    26    1
    21    25    35    1
    22    35    36    1
    23    36    37    1
    24    37    38    1
    25    37    39    1
    26    25    28    1
    27    28    29   ar
    28    29    30   ar
    29    30    31   ar
    30    31    32   ar
    31    32    33    1
    32    32    34   ar
    33    17    18   ar
    34    18    19   ar
    35    19    20   ar
    36    20    23    1
    37    23    24    1
    38    20    15   ar
    39    12     2   ar
    40    34    28   ar
    41    10     4   ar
    42    26    27    1
@<TRIPOS>MOLECULE
*****
 39 42 0 0 0
SMALL
GASTEIGER

@<TRIPOS>ATOM
      1 C          62.0355   88.4672   10.3704 C.3     1  UNL1        0.0792
      2 C          62.2919   87.0166   10.6535 C.ar    1  UNL1        0.0374
      3 C          62.7491   86.5878   12.0163 C.ar    1  UNL1        0.0023
      4 C          63.0055   85.1372   12.2994 C.ar    1  UNL1        0.0181
      5 C          63.4626   84.7084   13.6622 C.ar    1  UNL1        0.0082
      6 C          63.7190   83.2579   13.9453 C.ar    1  UNL1        0.0347
      7 BR         64.1762   82.8291   15.3081 Br      1  UNL1       -0.0490
      8 C          63.5183   82.2361   12.8656 C.ar    1  UNL1        0.0082
      9 C          63.0612   82.6649   11.5028 C.ar    1  UNL1        0.0197
     10 C          62.8048   84.1154   11.2197 C.ar    1  UNL1        0.0844
     11 N          62.3477   84.5443    9.8569 N.ar    1  UNL1       -0.2119
     12 C          62.0912   85.9948    9.5738 C.ar    1  UNL1        0.2211
     13 O          61.6341   86.4236    8.2110 O.3     1  UNL1       -0.4563
     14 C          60.8060   85.4965    7.3716 C.3     1  UNL1        0.2542
     15 C          64.2064   91.7285   11.0031 C.ar    1  UNL1        0.1913
     16 C          63.4049   90.6739   10.2994 C.ar    1  UNL1        0.0394
     17 C          62.8370   89.5218   11.0741 C.ar    1  UNL1        0.0067
     18 C          63.0708   89.4243   12.5525 C.ar    1  UNL1        0.0984
     19 N          63.8723   90.4789   13.2563 N.ar    1  UNL1       -0.2079
     20 C          64.4402   91.6310   12.4816 C.ar    1  UNL1        0.2601
     21 C          66.2606   93.0553   10.1254 C.3     1  UNL1        0.2527
     22 O          64.7743   92.8806   10.2284 O.3     1  UNL1       -0.4667
     23 O          65.2417   92.6857   13.1853 O.3     1  UNL1       -0.4541
     24 C          66.6522   92.3987   13.6074 C.3     1  UNL1        0.2543
     25 C          60.9775   88.8630    9.3835 C.3     1  UNL1        0.1159
     26 O          61.8850   88.4737    8.2544 O.3     1  UNL1       -0.3820
     27 H          61.3617   88.0742    7.5421 H       1  UNL1        0.2107
     28 C          60.0700   89.2524   10.5126 C.ar    1  UNL1        0.0046
     29 C          59.6054   88.2164   11.4929 C.ar    1  UNL1       -0.0019
     30 C          58.6979   88.6058   12.6220 C.ar    1  UNL1        0.0021
     31 C          58.2550   90.0311   12.7708 C.ar    1  UNL1        0.0296
     32 C          58.7196   91.0671   11.7906 C.ar    1  UNL1        0.1399
     33 F          58.2767   92.4925   11.9395 F       1  UNL1       -0.2042
     34 C          59.6271   90.6777   10.6615 C.ar    1  UNL1        0.0276
     35 C          59.9195   89.2589    8.3967 C.3     1  UNL1        0.0491
     36 C          60.1686   89.1006    6.9261 C.3     1  UNL1        0.0750
     37 N          59.6511   90.1274    5.9628 N.3     1  UNL1       -0.2702
     38 C          58.1858   90.4456    5.9214 C.3     1  UNL1        0.0897
     39 C          60.5987   90.8359    5.0410 C.3     1  UNL1        0.0897
@<TRIPOS>BOND
     1    21    22    1
     2    22    15    1
     3    15    16   ar
     4    16    17   ar
     5     1    17    1
     6     1     2    1
     7     2     3   ar
     8     3     4   ar
     9     4     5   ar
    10     5     6   ar
    11     6     7    1
    12     6     8   ar
    13     8     9   ar
    14     9    10   ar
    15    10    11   ar
    16    11    12   ar
    17    12    13    1
    18    13    14    1
    19     1    25    1
    20    25    26    1
    21    25    35    1
    22    35    36    1
    23    36    37    1
    24    37    38    1
    25    37    39    1
    26    25    28    1
    27    28    29   ar
    28    29    30   ar
    29    30    31   ar
    30    31    32   ar
    31    32    33    1
    32    32    34   ar
    33    17    18   ar
    34    18    19   ar
    35    19    20   ar
    36    20    23    1
    37    23    24    1
    38    20    15   ar
    39    12     2   ar
    40    34    28   ar
    41    10     4   ar
    42    26    27    1
@<TRIPOS>MOLECULE
*****
 39 42 0 0 0
SMALL
GASTEIGER

@<TRIPOS>ATOM
      1 C          60.9356   94.2497   -2.3371 C.3     1  UNL1        0.0792
      2 C          59.6190   94.6288   -2.9478 C.ar    1  UNL1        0.0374
      3 C          59.0557   93.8194   -4.0780 C.ar    1  UNL1        0.0023
      4 C          57.7391   94.1986   -4.6887 C.ar    1  UNL1        0.0181
      5 C          57.1757   93.3892   -5.8189 C.ar    1  UNL1        0.0082
      6 C          55.8592   93.7683   -6.4296 C.ar    1  UNL1        0.0347
      7 BR         55.2958   92.9589   -7.5599 Br      1  UNL1       -0.0490
      8 C          55.1060   94.9569   -5.9100 C.ar    1  UNL1        0.0082
      9 C          55.6693   95.7663   -4.7797 C.ar    1  UNL1        0.0197
     10 C          56.9859   95.3872   -4.1691 C.ar    1  UNL1        0.0844
     11 N          57.5493   96.1966   -3.0388 N.ar    1  UNL1       -0.2119
     12 C          58.8658   95.8174   -2.4282 C.ar    1  UNL1        0.2211
     13 O          59.4292   96.6268   -1.2979 O.3     1  UNL1       -0.4563
     14 C          58.6135   96.8560   -0.0601 C.3     1  UNL1        0.2542
     15 C          64.4101   94.2871   -4.2544 C.ar    1  UNL1        0.1913
     16 C          63.1313   93.7905   -3.6479 C.ar    1  UNL1        0.0394
     17 C          62.2145   94.7463   -2.9437 C.ar    1  UNL1        0.0067
     18 C          62.5764   96.1987   -2.8460 C.ar    1  UNL1        0.0984
     19 N          63.8553   96.6953   -3.4526 N.ar    1  UNL1       -0.2079
     20 C          64.7722   95.7396   -4.1568 C.ar    1  UNL1        0.2601
     21 C          64.7814   92.0631   -5.5451 C.3     1  UNL1        0.2527
     22 O          65.3270   93.3314   -4.9587 O.3     1  UNL1       -0.4667
     23 O          66.0510   96.2362   -4.7633 O.3     1  UNL1       -0.4541
     24 C          66.1081   96.5693   -6.2247 C.3     1  UNL1        0.2543
     25 C          60.9733   93.3740   -1.1199 C.3     1  UNL1        0.1159
     26 O          59.9142   92.4964   -1.7185 O.3     1  UNL1       -0.3820
     27 H          60.0920   91.5714   -1.4870 H       1  UNL1        0.2107
     28 C          62.0324   94.2515   -0.5213 C.ar    1  UNL1        0.0046
     29 C          61.6839   95.6318   -0.0488 C.ar    1  UNL1       -0.0019
     30 C          62.7430   96.5093    0.5498 C.ar    1  UNL1        0.0021
     31 C          64.1506   96.0066    0.6758 C.ar    1  UNL1        0.0296
     32 C          64.4991   94.6263    0.2032 C.ar    1  UNL1        0.1399
     33 F          65.9067   94.1235    0.3292 F       1  UNL1       -0.2042
     34 C          63.4400   93.7488   -0.3953 C.ar    1  UNL1        0.0276
     35 C          61.0110   92.4982    0.0973 C.3     1  UNL1        0.0491
     36 C          60.1262   92.8043    1.2692 C.3     1  UNL1        0.0750
     37 N          60.6266   92.5808    2.6655 N.3     1  UNL1       -0.2702
     38 C          59.6704   92.6217    3.8204 C.3     1  UNL1        0.0897
     39 C          62.0832   92.3164    2.9068 C.3     1  UNL1        0.0897
@<TRIPOS>BOND
     1    21    22    1
     2    22    15    1
     3    15    16   ar
     4    16    17   ar
     5     1    17    1
     6     1     2    1
     7     2     3   ar
     8     3     4   ar
     9     4     5   ar
    10     5     6   ar
    11     6     7    1
    12     6     8   ar
    13     8     9   ar
    14     9    10   ar
    15    10    11   ar
    16    11    12   ar
    17    12    13    1
    18    13    14    1
    19     1    25    1
    20    25    26    1
    21    25    35    1
    22    35    36    1
    23    36    37    1
    24    37    38    1
    25    37    39    1
    26    25    28    1
    27    28    29   ar
    28    29    30   ar
    29    30    31   ar
    30    31    32   ar
    31    32    33    1
    32    32    34   ar
    33    17    18   ar
    34    18    19   ar
    35    19    20   ar
    36    20    23    1
    37    23    24    1
    38    20    15   ar
    39    12     2   ar
    40    34    28   ar
    41    10     4   ar
    42    26    27    1
@<TRIPOS>MOLECULE
*****
 39 42 0 0 0
SMALL
GASTEIGER

@<TRIPOS>ATOM
      1 C          62.8232   88.8342   11.3072 C.3     1  UNL1        0.0792
      2 C          63.0734   87.7855   12.3502 C.ar    1  UNL1        0.0374
      3 C          63.1400   86.3391   11.9585 C.ar    1  UNL1        0.0023
      4 C          63.3901   85.2904   13.0015 C.ar    1  UNL1        0.0181
      5 C          63.4567   83.8440   12.6098 C.ar    1  UNL1        0.0082
      6 C          63.7068   82.7954   13.6528 C.ar    1  UNL1        0.0347
      7 BR         63.7734   81.3489   13.2612 Br      1  UNL1       -0.0490
      8 C          63.8905   83.1932   15.0874 C.ar    1  UNL1        0.0082
      9 C          63.8239   84.6396   15.4790 C.ar    1  UNL1        0.0197
     10 C          63.5738   85.6882   14.4361 C.ar    1  UNL1        0.0844
     11 N          63.5072   87.1347   14.8277 N.ar    1  UNL1       -0.2119
     12 C          63.2570   88.1833   13.7848 C.ar    1  UNL1        0.2211
     13 O          63.1905   89.6298   14.1764 O.3     1  UNL1       -0.4563
     14 C          63.3519   90.0257   15.6142 C.3     1  UNL1        0.2542
     15 C          64.9097   91.8874   12.7476 C.ar    1  UNL1        0.1913
     16 C          64.2104   90.5631   12.6624 C.ar    1  UNL1        0.0394
     17 C          63.5225   90.1585   11.3924 C.ar    1  UNL1        0.0067
     18 C          63.5338   91.0782   10.2075 C.ar    1  UNL1        0.0984
     19 N          64.2331   92.4025   10.2926 N.ar    1  UNL1       -0.2079
     20 C          64.9210   92.8071   11.5626 C.ar    1  UNL1        0.2601
     21 C          66.8084   91.5411   14.4868 C.3     1  UNL1        0.2527
     22 O          65.5976   92.2920   14.0176 O.3     1  UNL1       -0.4667
     23 O          65.6203   94.1314   11.6478 O.3     1  UNL1       -0.4541
     24 C          65.6520   95.0408   10.4553 C.3     1  UNL1        0.2543
     25 C          61.8738   88.5586   10.1791 C.3     1  UNL1        0.1159
     26 O          63.0210   88.1098    9.3233 O.3     1  UNL1       -0.3820
     27 H          62.7389   87.3656    8.7687 H       1  UNL1        0.2107
     28 C          60.7266   89.0074   11.0350 C.ar    1  UNL1        0.0046
     29 C          60.1127   88.0605   12.0231 C.ar    1  UNL1       -0.0019
     30 C          58.9655   88.5093   12.8790 C.ar    1  UNL1        0.0021
     31 C          58.4322   89.9050   12.7467 C.ar    1  UNL1        0.0296
     32 C          59.0461   90.8519   11.7585 C.ar    1  UNL1        0.1399
     33 F          58.5128   92.2477   11.6262 F       1  UNL1       -0.2042
     34 C          60.1933   90.4031   10.9027 C.ar    1  UNL1        0.0276
     35 C          60.9244   88.2829    9.0510 C.3     1  UNL1        0.0491
     36 C          60.3790   86.9001    8.8507 C.3     1  UNL1        0.0750
     37 N          61.1441   85.9034    8.0314 N.3     1  UNL1       -0.2702
     38 C          62.5358   85.5133    8.4326 C.3     1  UNL1        0.0897
     39 C          60.5176   85.2969    6.8110 C.3     1  UNL1        0.0897
@<TRIPOS>BOND
     1    21    22    1
     2    22    15    1
     3    15    16   ar
     4    16    17   ar
     5     1    17    1
     6     1     2    1
     7     2     3   ar
     8     3     4   ar
     9     4     5   ar
    10     5     6   ar
    11     6     7    1
    12     6     8   ar
    13     8     9   ar
    14     9    10   ar
    15    10    11   ar
    16    11    12   ar
    17    12    13    1
    18    13    14    1
    19     1    25    1
    20    25    26    1
    21    25    35    1
    22    35    36    1
    23    36    37    1
    24    37    38    1
    25    37    39    1
    26    25    28    1
    27    28    29   ar
    28    29    30   ar
    29    30    31   ar
    30    31    32   ar
    31    32    33    1
    32    32    34   ar
    33    17    18   ar
    34    18    19   ar
    35    19    20   ar
    36    20    23    1
    37    23    24    1
    38    20    15   ar
    39    12     2   ar
    40    34    28   ar
    41    10     4   ar
    42    26    27    1
