@<TRIPOS>MOLECULE
*****
 40 43 0 0 0
SMALL
GASTEIGER

@<TRIPOS>ATOM
      1 C          63.2558   83.4579   12.3724 C.3     1  UNL1        0.0692
      2 C          63.5499   83.1691   10.9302 C.3     1  UNL1        0.0126
      3 C          63.0124   84.0719    9.8597 C.3     1  UNL1        0.0269
      4 C          62.1807   85.2636   10.2315 C.ar    1  UNL1       -0.0194
      5 C          61.6431   86.1664    9.1610 C.ar    1  UNL1       -0.0026
      6 C          60.8114   87.3580    9.5328 C.ar    1  UNL1        0.0189
      7 C          60.5173   87.6469   10.9750 C.ar    1  UNL1        0.0016
      8 C          61.0549   86.7441   12.0455 C.ar    1  UNL1        0.0026
      9 C          61.8866   85.5524   11.6737 C.ar    1  UNL1        0.0307
     10 C          62.4242   84.6496   12.7442 C.2     1  UNL1        0.1726
     11 O          62.1301   84.9384   14.1864 O.2     1  UNL1       -0.2914
     12 C          60.2738   88.2609    8.4623 C.ar    1  UNL1        0.1005
     13 C          60.4176   89.7482    8.5936 C.ar    1  UNL1        0.1194
     14 N          59.8800   90.6511    7.5232 N.ar    1  UNL1       -0.2258
     15 C          59.1986   90.0666    6.3214 C.ar    1  UNL1        0.1547
     16 C          59.0549   88.5793    6.1901 C.ar    1  UNL1        0.1332
     17 N          59.5925   87.6764    7.2605 N.ar    1  UNL1       -0.2393
     18 N          58.6611   90.9695    5.2510 N.am    1  UNL1       -0.2521
     19 C          59.6022   91.6523    4.3033 C.2     1  UNL1        0.3093
     20 O          61.0808   91.4323    4.4260 O.2     1  UNL1       -0.2521
     21 N          59.0646   92.5552    3.2329 N.am    1  UNL1       -0.2680
     22 H          57.6906   91.1139    5.1704 H       1  UNL1        0.1579
     23 H          58.0941   92.6996    3.1523 H       1  UNL1        0.1564
     24 C          60.0057   93.2380    2.2852 C.ar    1  UNL1        0.0540
     25 C          60.4785   94.6323    2.5723 C.ar    1  UNL1        0.0172
     26 C          61.4196   95.3152    1.6246 C.ar    1  UNL1        0.0332
     27 C          61.8879   94.6037    0.3899 C.ar    1  UNL1        0.1675
     28 F          62.8290   95.2866   -0.5577 F       1  UNL1       -0.2018
     29 C          61.4151   93.2094    0.1028 C.ar    1  UNL1        0.1686
     30 F          61.8834   92.4980   -1.1319 F       1  UNL1       -0.2018
     31 C          60.4740   92.5265    1.0505 C.ar    1  UNL1        0.0467
     32 C          63.2498   83.3158   13.8656 C.3     1  UNL1        0.0492
     33 O          64.7213   83.0180   15.9861 O.co2   1  UNL1       -0.5492
     34 C          64.4738   83.6691   14.6576 C.2     1  UNL1        0.0508
     35 O          65.4503   84.6735   14.1210 O.co2   1  UNL1       -0.5492
     36 C          64.0854   82.2169   12.5192 C.3     1  UNL1        0.1109
     37 C          63.4328   80.9177   12.8883 C.3     1  UNL1        0.3982
     38 F          62.7803   79.6185   13.2576 F       1  UNL1       -0.1700
     39 F          62.3069   81.2145   11.9428 F       1  UNL1       -0.1700
     40 F          64.5589   80.6209   13.8339 F       1  UNL1       -0.1700
@<TRIPOS>UNITY_ATOM_ATTR
33 1
charge -1
@<TRIPOS>BOND
     1    33    34   ar
     2    34    35   ar
     3    34    32    1
     4     1    32    1
     5     1    36    1
     6    36    37    1
     7    37    38    1
     8    37    39    1
     9    37    40    1
    10     1     2    1
    11     2     3    1
    12     3     4    1
    13     4     5   ar
    14     5     6   ar
    15     6    12    1
    16    12    13   ar
    17    13    14   ar
    18    14    15   ar
    19    15    18    1
    20    18    19   am
    21    19    20    2
    22    19    21   am
    23    21    24    1
    24    24    25   ar
    25    25    26   ar
    26    26    27   ar
    27    27    28    1
    28    27    29   ar
    29    29    30    1
    30    29    31   ar
    31    15    16   ar
    32    16    17   ar
    33     6     7   ar
    34     7     8   ar
    35     8     9   ar
    36     9    10    1
    37    10    11    2
    38    10     1    1
    39     9     4   ar
    40    17    12   ar
    41    31    24   ar
    42    18    22    1
    43    21    23    1
@<TRIPOS>MOLECULE
*****
 40 43 0 0 0
SMALL
GASTEIGER

@<TRIPOS>ATOM
      1 C          63.2527   83.4484   12.3840 C.3     1  UNL1        0.0692
      2 C          63.5391   83.1556   10.9409 C.3     1  UNL1        0.0126
      3 C          63.0024   84.0600    9.8714 C.3     1  UNL1        0.0269
      4 C          62.1791   85.2571   10.2448 C.ar    1  UNL1       -0.0194
      5 C          61.6424   86.1614    9.1752 C.ar    1  UNL1       -0.0026
      6 C          60.8192   87.3584    9.5487 C.ar    1  UNL1        0.0189
      7 C          60.5328   87.6511   10.9917 C.ar    1  UNL1        0.0016
      8 C          61.0696   86.7468   12.0612 C.ar    1  UNL1        0.0026
      9 C          61.8928   85.5498   11.6878 C.ar    1  UNL1        0.0307
     10 C          62.4296   84.6454   12.7574 C.2     1  UNL1        0.1726
     11 O          62.1432   84.9381   14.2004 O.2     1  UNL1       -0.2914
     12 C          60.2824   88.2628    8.4790 C.ar    1  UNL1        0.1005
     13 C          60.4524   89.7484    8.5980 C.ar    1  UNL1        0.1194
     14 N          59.9157   90.6528    7.5285 N.ar    1  UNL1       -0.2258
     15 C          59.2088   90.0716    6.3399 C.ar    1  UNL1        0.1547
     16 C          59.0388   88.5860    6.2209 C.ar    1  UNL1        0.1332
     17 N          59.5756   87.6816    7.2905 N.ar    1  UNL1       -0.2393
     18 N          58.6720   90.9760    5.2704 N.am    1  UNL1       -0.2521
     19 C          59.6130   91.6504    4.3166 C.2     1  UNL1        0.3093
     20 O          61.0907   91.4204    4.4322 O.2     1  UNL1       -0.2521
     21 N          59.0762   92.5547    3.2470 N.am    1  UNL1       -0.2680
     22 H          57.7022   91.1269    5.1945 H       1  UNL1        0.1579
     23 H          58.1063   92.7057    3.1711 H       1  UNL1        0.1564
     24 C          60.0171   93.2291    2.2932 C.ar    1  UNL1        0.0540
     25 C          60.6092   92.4568    1.1517 C.ar    1  UNL1        0.0172
     26 C          61.5501   93.1312    0.1979 C.ar    1  UNL1        0.0332
     27 C          61.8990   94.5779    0.3855 C.ar    1  UNL1        0.1675
     28 F          62.8400   95.2523   -0.5683 F       1  UNL1       -0.2018
     29 C          61.3070   95.3503    1.5270 C.ar    1  UNL1        0.1686
     30 F          61.6559   96.7970    1.7146 F       1  UNL1       -0.2018
     31 C          60.3660   94.6759    2.4809 C.ar    1  UNL1        0.0467
     32 C          63.2522   83.3085   13.8774 C.3     1  UNL1        0.0492
     33 O          64.7339   82.9960   15.9885 O.co2   1  UNL1       -0.5492
     34 C          64.4827   83.6524   14.6634 C.2     1  UNL1        0.0508
     35 O          65.4618   84.6527   14.1242 O.co2   1  UNL1       -0.5492
     36 C          64.0757   82.2027   12.5292 C.3     1  UNL1        0.1109
     37 C          63.4157   80.9058   12.8928 C.3     1  UNL1        0.3982
     38 F          62.7555   79.6088   13.2564 F       1  UNL1       -0.1700
     39 F          64.5338   80.6039   13.8461 F       1  UNL1       -0.1700
     40 F          62.2975   81.2077   11.9395 F       1  UNL1       -0.1700
@<TRIPOS>UNITY_ATOM_ATTR
33 1
charge -1
@<TRIPOS>BOND
     1    33    34   ar
     2    34    35   ar
     3    34    32    1
     4     1    32    1
     5     1    36    1
     6    36    37    1
     7    37    38    1
     8    37    39    1
     9    37    40    1
    10     1     2    1
    11     2     3    1
    12     3     4    1
    13     4     5   ar
    14     5     6   ar
    15     6    12    1
    16    12    13   ar
    17    13    14   ar
    18    14    15   ar
    19    15    18    1
    20    18    19   am
    21    19    20    2
    22    19    21   am
    23    21    24    1
    24    24    25   ar
    25    25    26   ar
    26    26    27   ar
    27    27    28    1
    28    27    29   ar
    29    29    30    1
    30    29    31   ar
    31    15    16   ar
    32    16    17   ar
    33     6     7   ar
    34     7     8   ar
    35     8     9   ar
    36     9    10    1
    37    10    11    2
    38    10     1    1
    39     9     4   ar
    40    17    12   ar
    41    31    24   ar
    42    18    22    1
    43    21    23    1
@<TRIPOS>MOLECULE
*****
 40 43 0 0 0
SMALL
GASTEIGER

@<TRIPOS>ATOM
      1 C          63.3302   83.4457   13.2072 C.3     1  UNL1        0.0692
      2 C          62.6106   84.5814   13.8723 C.3     1  UNL1        0.0126
      3 C          61.9604   85.6471   13.0407 C.3     1  UNL1        0.0269
      4 C          62.0298   85.5770   11.5439 C.ar    1  UNL1       -0.0194
      5 C          61.3796   86.6427   10.7123 C.ar    1  UNL1       -0.0026
      6 C          61.4490   86.5726    9.2155 C.ar    1  UNL1        0.0189
      7 C          62.1686   85.4369    8.5504 C.ar    1  UNL1        0.0016
      8 C          62.8188   84.3713    9.3820 C.ar    1  UNL1        0.0026
      9 C          62.7494   84.4413   10.8788 C.ar    1  UNL1        0.0307
     10 C          63.3996   83.3757   11.7105 C.2     1  UNL1        0.1726
     11 O          64.1192   82.2400   11.0454 O.2     1  UNL1       -0.2914
     12 C          60.7988   87.6383    8.3838 C.ar    1  UNL1        0.1005
     13 C          60.8817   89.0749    8.8071 C.ar    1  UNL1        0.1194
     14 N          60.2315   90.1405    7.9755 N.ar    1  UNL1       -0.2258
     15 C          59.4984   89.7696    6.7205 C.ar    1  UNL1        0.1547
     16 C          59.4154   88.3329    6.2972 C.ar    1  UNL1        0.1332
     17 N          60.0657   87.2673    7.1289 N.ar    1  UNL1       -0.2393
     18 N          58.8482   90.8352    5.8889 N.am    1  UNL1       -0.2521
     19 C          59.6113   91.4861    4.7735 C.2     1  UNL1        0.3093
     20 O          61.0246   91.0713    4.4898 O.2     1  UNL1       -0.2521
     21 N          58.9612   92.5517    3.9419 N.am    1  UNL1       -0.2680
     22 H          57.9206   91.1074    6.0751 H       1  UNL1        0.1579
     23 H          58.0336   92.8240    4.1281 H       1  UNL1        0.1564
     24 C          59.7243   93.2026    2.8266 C.ar    1  UNL1        0.0540
     25 C          60.1218   94.6451    2.9317 C.ar    1  UNL1        0.0172
     26 C          60.8849   95.2960    1.8164 C.ar    1  UNL1        0.0332
     27 C          61.2505   94.5044    0.5959 C.ar    1  UNL1        0.1675
     28 F          62.0136   95.1553   -0.5195 F       1  UNL1       -0.2018
     29 C          60.8530   93.0618    0.4907 C.ar    1  UNL1        0.1686
     30 F          61.2187   92.2702   -0.7297 F       1  UNL1       -0.2018
     31 C          60.0899   92.4109    1.6061 C.ar    1  UNL1        0.0467
     32 C          64.1211   82.1820   13.0420 C.3     1  UNL1        0.0492
     33 O          64.2996   80.0301   14.4868 O.co2   1  UNL1       -0.5492
     34 C          63.5482   80.8734   13.4998 C.2     1  UNL1        0.0508
     35 O          62.2239   80.4082   12.9706 O.co2   1  UNL1       -0.5492
     36 C          63.5355   83.0769   14.6466 C.3     1  UNL1        0.1109
     37 C          63.8157   84.1448   15.6619 C.3     1  UNL1        0.3982
     38 F          64.0960   85.2128   16.6773 F       1  UNL1       -0.1700
     39 F          62.5344   83.8110   16.3668 F       1  UNL1       -0.1700
     40 F          65.0970   84.4787   14.9570 F       1  UNL1       -0.1700
@<TRIPOS>UNITY_ATOM_ATTR
33 1
charge -1
@<TRIPOS>BOND
     1    33    34   ar
     2    34    35   ar
     3    34    32    1
     4     1    32    1
     5     1    36    1
     6    36    37    1
     7    37    38    1
     8    37    39    1
     9    37    40    1
    10     1     2    1
    11     2     3    1
    12     3     4    1
    13     4     5   ar
    14     5     6   ar
    15     6    12    1
    16    12    13   ar
    17    13    14   ar
    18    14    15   ar
    19    15    18    1
    20    18    19   am
    21    19    20    2
    22    19    21   am
    23    21    24    1
    24    24    25   ar
    25    25    26   ar
    26    26    27   ar
    27    27    28    1
    28    27    29   ar
    29    29    30    1
    30    29    31   ar
    31    15    16   ar
    32    16    17   ar
    33     6     7   ar
    34     7     8   ar
    35     8     9   ar
    36     9    10    1
    37    10    11    2
    38    10     1    1
    39     9     4   ar
    40    17    12   ar
    41    31    24   ar
    42    18    22    1
    43    21    23    1
@<TRIPOS>MOLECULE
*****
 40 43 0 0 0
SMALL
GASTEIGER

@<TRIPOS>ATOM
      1 C          64.6252   94.5604   -4.8472 C.3     1  UNL1        0.0692
      2 C          63.8862   93.2568   -4.9147 C.3     1  UNL1        0.0126
      3 C          63.1154   92.7691   -3.7239 C.3     1  UNL1        0.0269
      4 C          63.0838   93.5850   -2.4655 C.ar    1  UNL1       -0.0194
      5 C          62.3130   93.0973   -1.2747 C.ar    1  UNL1       -0.0026
      6 C          62.2814   93.9131   -0.0164 C.ar    1  UNL1        0.0189
      7 C          63.0205   95.2166    0.0511 C.ar    1  UNL1        0.0016
      8 C          63.7912   95.7043   -1.1397 C.ar    1  UNL1        0.0026
      9 C          63.8228   94.8885   -2.3980 C.ar    1  UNL1        0.0307
     10 C          64.5936   95.3762   -3.5889 C.2     1  UNL1        0.1726
     11 O          65.3327   96.6797   -3.5214 O.2     1  UNL1       -0.2914
     12 C          61.5106   93.4254    1.1745 C.ar    1  UNL1        0.1005
     13 C          60.0225   93.6051    1.2296 C.ar    1  UNL1        0.1194
     14 N          59.2517   93.1175    2.4204 N.ar    1  UNL1       -0.2258
     15 C          59.9691   92.4500    3.5562 C.ar    1  UNL1        0.1547
     16 C          61.4573   92.2703    3.5011 C.ar    1  UNL1        0.1332
     17 N          62.2280   92.7580    2.3102 N.ar    1  UNL1       -0.2393
     18 N          59.1984   91.9624    4.7470 N.am    1  UNL1       -0.2521
     19 C          59.7220   90.8168    5.5616 C.2     1  UNL1        0.3093
     20 O          61.0164   90.1590    5.1853 O.2     1  UNL1       -0.2521
     21 N          58.9513   90.3292    6.7524 N.am    1  UNL1       -0.2680
     22 H          58.3488   92.3942    4.9940 H       1  UNL1        0.1579
     23 H          58.1017   90.7610    6.9994 H       1  UNL1        0.1564
     24 C          59.4749   89.1837    7.5670 C.ar    1  UNL1        0.0540
     25 C          60.1049   89.4402    8.9039 C.ar    1  UNL1        0.0172
     26 C          60.6285   88.2946    9.7184 C.ar    1  UNL1        0.0332
     27 C          60.5223   86.8926    9.1961 C.ar    1  UNL1        0.1675
     28 F          61.0459   85.7470   10.0107 F       1  UNL1       -0.2018
     29 C          59.8923   86.6360    7.8591 C.ar    1  UNL1        0.1686
     30 F          59.7860   85.2339    7.3368 F       1  UNL1       -0.2018
     31 C          59.3686   87.7815    7.0446 C.ar    1  UNL1        0.0467
     32 C          65.4782   95.7205   -5.2674 C.3     1  UNL1        0.0492
     33 O          63.7299   96.8555   -6.8182 O.co2   1  UNL1       -0.5492
     34 C          65.1505   96.4773   -6.5204 C.2     1  UNL1        0.0508
     35 O          66.2435   96.8559   -7.4755 O.co2   1  UNL1       -0.5492
     36 C          64.9531   94.1474   -6.2515 C.3     1  UNL1        0.1109
     37 C          65.0821   92.6930   -6.5949 C.3     1  UNL1        0.3982
     38 F          65.2112   91.2385   -6.9382 F       1  UNL1       -0.1700
     39 F          63.9363   92.8179   -7.5548 F       1  UNL1       -0.1700
     40 F          66.2279   92.5681   -5.6349 F       1  UNL1       -0.1700
@<TRIPOS>UNITY_ATOM_ATTR
33 1
charge -1
@<TRIPOS>BOND
     1    33    34   ar
     2    34    35   ar
     3    34    32    1
     4     1    32    1
     5     1    36    1
     6    36    37    1
     7    37    38    1
     8    37    39    1
     9    37    40    1
    10     1     2    1
    11     2     3    1
    12     3     4    1
    13     4     5   ar
    14     5     6   ar
    15     6    12    1
    16    12    13   ar
    17    13    14   ar
    18    14    15   ar
    19    15    18    1
    20    18    19   am
    21    19    20    2
    22    19    21   am
    23    21    24    1
    24    24    25   ar
    25    25    26   ar
    26    26    27   ar
    27    27    28    1
    28    27    29   ar
    29    29    30    1
    30    29    31   ar
    31    15    16   ar
    32    16    17   ar
    33     6     7   ar
    34     7     8   ar
    35     8     9   ar
    36     9    10    1
    37    10    11    2
    38    10     1    1
    39     9     4   ar
    40    17    12   ar
    41    31    24   ar
    42    18    22    1
    43    21    23    1
@<TRIPOS>MOLECULE
*****
 40 43 0 0 0
SMALL
GASTEIGER

@<TRIPOS>ATOM
      1 C          63.3551   94.9551   -4.9919 C.3     1  UNL1        0.0692
      2 C          61.9803   94.3624   -5.0845 C.3     1  UNL1        0.0126
      3 C          61.2799   93.8949   -3.8432 C.3     1  UNL1        0.0269
      4 C          61.9544   94.0201   -2.5091 C.ar    1  UNL1       -0.0194
      5 C          61.2540   93.5526   -1.2678 C.ar    1  UNL1       -0.0026
      6 C          61.9285   93.6778    0.0661 C.ar    1  UNL1        0.0189
      7 C          63.3033   94.2705    0.1587 C.ar    1  UNL1        0.0016
      8 C          64.0037   94.7380   -1.0826 C.ar    1  UNL1        0.0026
      9 C          63.3292   94.6128   -2.4165 C.ar    1  UNL1        0.0307
     10 C          64.0295   95.0803   -3.6580 C.2     1  UNL1        0.1726
     11 O          65.4044   95.6730   -3.5654 O.2     1  UNL1       -0.2914
     12 C          61.2281   93.2103    1.3075 C.ar    1  UNL1        0.1005
     13 C          59.7355   93.3159    1.4114 C.ar    1  UNL1        0.1194
     14 N          59.0351   92.8484    2.6527 N.ar    1  UNL1       -0.2258
     15 C          59.8274   92.2753    3.7902 C.ar    1  UNL1        0.1547
     16 C          61.3201   92.1698    3.6863 C.ar    1  UNL1        0.1332
     17 N          62.0205   92.6373    2.4449 N.ar    1  UNL1       -0.2393
     18 N          59.1271   91.8078    5.0315 N.am    1  UNL1       -0.2521
     19 C          59.6703   90.6437    5.8059 C.2     1  UNL1        0.3093
     20 O          60.9139   89.9470    5.3390 O.2     1  UNL1       -0.2521
     21 N          58.9700   90.1762    7.0472 N.am    1  UNL1       -0.2680
     22 H          58.3109   92.2651    5.3380 H       1  UNL1        0.1579
     23 H          58.1537   90.6335    7.3537 H       1  UNL1        0.1564
     24 C          59.5132   89.0121    7.8216 C.ar    1  UNL1        0.0540
     25 C          59.2066   87.6108    7.3830 C.ar    1  UNL1        0.0172
     26 C          59.7498   86.4467    8.1573 C.ar    1  UNL1        0.0332
     27 C          60.5997   86.6838    9.3703 C.ar    1  UNL1        0.1675
     28 F          61.1429   85.5196   10.1447 F       1  UNL1       -0.2018
     29 C          60.9063   88.0851    9.8091 C.ar    1  UNL1        0.1686
     30 F          61.7562   88.3222   11.0221 F       1  UNL1       -0.2018
     31 C          60.3631   89.2492    9.0347 C.ar    1  UNL1        0.0467
     32 C          64.6521   95.5797   -5.4134 C.3     1  UNL1        0.0492
     33 O          65.7599   93.3419   -6.1311 O.co2   1  UNL1       -0.5492
     34 C          65.5953   94.8231   -6.3011 C.2     1  UNL1        0.0508
     35 O          66.3738   95.5478   -7.3589 O.co2   1  UNL1       -0.5492
     36 C          63.1310   95.0468   -6.4722 C.3     1  UNL1        0.1109
     37 C          61.7768   95.4109   -7.0047 C.3     1  UNL1        0.3982
     38 F          60.4226   95.7751   -7.5373 F       1  UNL1       -0.1700
     39 F          61.5415   93.9793   -7.3853 F       1  UNL1       -0.1700
     40 F          62.0122   96.8426   -6.6241 F       1  UNL1       -0.1700
@<TRIPOS>UNITY_ATOM_ATTR
33 1
charge -1
@<TRIPOS>BOND
     1    33    34   ar
     2    34    35   ar
     3    34    32    1
     4     1    32    1
     5     1    36    1
     6    36    37    1
     7    37    38    1
     8    37    39    1
     9    37    40    1
    10     1     2    1
    11     2     3    1
    12     3     4    1
    13     4     5   ar
    14     5     6   ar
    15     6    12    1
    16    12    13   ar
    17    13    14   ar
    18    14    15   ar
    19    15    18    1
    20    18    19   am
    21    19    20    2
    22    19    21   am
    23    21    24    1
    24    24    25   ar
    25    25    26   ar
    26    26    27   ar
    27    27    28    1
    28    27    29   ar
    29    29    30    1
    30    29    31   ar
    31    15    16   ar
    32    16    17   ar
    33     6     7   ar
    34     7     8   ar
    35     8     9   ar
    36     9    10    1
    37    10    11    2
    38    10     1    1
    39     9     4   ar
    40    17    12   ar
    41    31    24   ar
    42    18    22    1
    43    21    23    1
@<TRIPOS>MOLECULE
*****
 40 43 0 0 0
SMALL
GASTEIGER

@<TRIPOS>ATOM
      1 C          62.8073   84.5812   11.2448 C.3     1  UNL1        0.0692
      2 C          63.3213   84.4034    9.8469 C.3     1  UNL1        0.0126
      3 C          62.8507   85.3156    8.7531 C.3     1  UNL1        0.0269
      4 C          61.8660   86.4056    9.0572 C.ar    1  UNL1       -0.0194
      5 C          61.3954   87.3177    7.9634 C.ar    1  UNL1       -0.0026
      6 C          60.4107   88.4076    8.2675 C.ar    1  UNL1        0.0189
      7 C          59.8967   88.5853    9.6654 C.ar    1  UNL1        0.0016
      8 C          60.3673   87.6732   10.7592 C.ar    1  UNL1        0.0026
      9 C          61.3519   86.5833   10.4551 C.ar    1  UNL1        0.0307
     10 C          61.8226   85.6711   11.5489 C.2     1  UNL1        0.1726
     11 O          61.3086   85.8488   12.9468 O.2     1  UNL1       -0.2914
     12 C          59.9401   89.3198    7.1736 C.ar    1  UNL1        0.1005
     13 C          60.9371   90.0784    6.3487 C.ar    1  UNL1        0.1194
     14 N          60.4665   90.9905    5.2549 N.ar    1  UNL1       -0.2258
     15 C          58.9988   91.1442    4.9860 C.ar    1  UNL1        0.1547
     16 C          58.0017   90.3857    5.8109 C.ar    1  UNL1        0.1332
     17 N          58.4724   89.4735    6.9047 N.ar    1  UNL1       -0.2393
     18 N          58.5282   92.0564    3.8922 N.am    1  UNL1       -0.2521
     19 C          59.5174   92.6517    2.9346 C.2     1  UNL1        0.3093
     20 O          60.9772   92.3348    3.0707 O.2     1  UNL1       -0.2521
     21 N          59.0468   93.5639    1.8408 N.am    1  UNL1       -0.2680
     22 H          57.5701   92.2644    3.8029 H       1  UNL1        0.1579
     23 H          58.0887   93.7719    1.7514 H       1  UNL1        0.1564
     24 C          60.0360   94.1592    0.8831 C.ar    1  UNL1        0.0540
     25 C          60.4256   95.6023    1.0079 C.ar    1  UNL1        0.0172
     26 C          61.4147   96.1976    0.0502 C.ar    1  UNL1        0.0332
     27 C          62.0144   95.3498   -1.0322 C.ar    1  UNL1        0.1675
     28 F          63.0036   95.9451   -1.9899 F       1  UNL1       -0.2018
     29 C          61.6248   93.9066   -1.1570 C.ar    1  UNL1        0.1686
     30 F          62.2244   93.0588   -2.2394 F       1  UNL1       -0.2018
     31 C          60.6356   93.3113   -0.1993 C.ar    1  UNL1        0.0467
     32 C          62.6116   84.3529   12.7143 C.3     1  UNL1        0.0492
     33 O          64.4180   85.7780   13.9209 O.co2   1  UNL1       -0.5492
     34 C          63.7801   84.4477   13.6502 C.2     1  UNL1        0.0508
     35 O          64.3104   83.2122   14.3153 O.co2   1  UNL1       -0.5492
     36 C          63.7240   83.4120   11.4511 C.3     1  UNL1        0.1109
     37 C          63.4249   82.0987   10.7908 C.3     1  UNL1        0.3982
     38 F          63.1260   80.7854   10.1305 F       1  UNL1       -0.1700
     39 F          62.1934   81.9547   11.6349 F       1  UNL1       -0.1700
     40 F          64.6565   82.2428    9.9467 F       1  UNL1       -0.1700
@<TRIPOS>UNITY_ATOM_ATTR
33 1
charge -1
@<TRIPOS>BOND
     1    33    34   ar
     2    34    35   ar
     3    34    32    1
     4     1    32    1
     5     1    36    1
     6    36    37    1
     7    37    38    1
     8    37    39    1
     9    37    40    1
    10     1     2    1
    11     2     3    1
    12     3     4    1
    13     4     5   ar
    14     5     6   ar
    15     6    12    1
    16    12    13   ar
    17    13    14   ar
    18    14    15   ar
    19    15    18    1
    20    18    19   am
    21    19    20    2
    22    19    21   am
    23    21    24    1
    24    24    25   ar
    25    25    26   ar
    26    26    27   ar
    27    27    28    1
    28    27    29   ar
    29    29    30    1
    30    29    31   ar
    31    15    16   ar
    32    16    17   ar
    33     6     7   ar
    34     7     8   ar
    35     8     9   ar
    36     9    10    1
    37    10    11    2
    38    10     1    1
    39     9     4   ar
    40    17    12   ar
    41    31    24   ar
    42    18    22    1
    43    21    23    1
@<TRIPOS>MOLECULE
*****
 40 43 0 0 0
SMALL
GASTEIGER

@<TRIPOS>ATOM
      1 C          63.5657   85.8588   13.4901 C.3     1  UNL1        0.0692
      2 C          63.7098   87.3508   13.5443 C.3     1  UNL1        0.0126
      3 C          63.0998   88.2028   12.4710 C.3     1  UNL1        0.0269
      4 C          62.3456   87.5627   11.3434 C.ar    1  UNL1       -0.0194
      5 C          61.7356   88.4146   10.2701 C.ar    1  UNL1       -0.0026
      6 C          60.9814   87.7745    9.1425 C.ar    1  UNL1        0.0189
      7 C          60.8373   86.2825    9.0883 C.ar    1  UNL1        0.0016
      8 C          61.4473   85.4305   10.1615 C.ar    1  UNL1        0.0026
      9 C          62.2014   86.0706   11.2891 C.ar    1  UNL1        0.0307
     10 C          62.8115   85.2186   12.3625 C.2     1  UNL1        0.1726
     11 O          62.6673   83.7266   12.3082 O.2     1  UNL1       -0.2914
     12 C          60.3714   88.6265    8.0691 C.ar    1  UNL1        0.1005
     13 C          59.1813   88.1297    7.3031 C.ar    1  UNL1        0.1194
     14 N          58.5713   88.9816    6.2297 N.ar    1  UNL1       -0.2258
     15 C          59.1513   90.3304    5.9224 C.ar    1  UNL1        0.1547
     16 C          60.3413   90.8272    6.6885 C.ar    1  UNL1        0.1332
     17 N          60.9514   89.9753    7.7619 N.ar    1  UNL1       -0.2393
     18 N          58.5412   91.1823    4.8491 N.am    1  UNL1       -0.2521
     19 C          59.4216   91.8882    3.8609 C.2     1  UNL1        0.3093
     20 O          60.9120   91.7422    3.9459 O.2     1  UNL1       -0.2521
     21 N          58.8115   92.7400    2.7875 N.am    1  UNL1       -0.2680
     22 H          57.5630   91.2781    4.7933 H       1  UNL1        0.1579
     23 H          57.8333   92.8359    2.7317 H       1  UNL1        0.1564
     24 C          59.6919   93.4459    1.7993 C.ar    1  UNL1        0.0540
     25 C          60.1324   94.8558    2.0603 C.ar    1  UNL1        0.0172
     26 C          61.0128   95.5617    1.0721 C.ar    1  UNL1        0.0332
     27 C          61.4527   94.8577   -0.1772 C.ar    1  UNL1        0.1675
     28 F          62.3330   95.5636   -1.1655 F       1  UNL1       -0.2018
     29 C          61.0122   93.4478   -0.4384 C.ar    1  UNL1        0.1686
     30 F          61.4521   92.7438   -1.6877 F       1  UNL1       -0.2018
     31 C          60.1318   92.7419    0.5499 C.ar    1  UNL1        0.0467
     32 C          63.6996   84.4149   13.8736 C.3     1  UNL1        0.0492
     33 O          63.0056   82.4388   15.4110 O.co2   1  UNL1       -0.5492
     34 C          62.7448   83.8090   14.8593 C.2     1  UNL1        0.0508
     35 O          61.5293   84.5735   15.2932 O.co2   1  UNL1       -0.5492
     36 C          64.3663   85.9974   14.7509 C.3     1  UNL1        0.1109
     37 C          64.1207   87.1556   15.6718 C.3     1  UNL1        0.3982
     38 F          63.8750   88.3138   16.5929 F       1  UNL1       -0.1700
     39 F          65.0939   87.9854   14.8880 F       1  UNL1       -0.1700
     40 F          63.1475   86.3258   16.4557 F       1  UNL1       -0.1700
@<TRIPOS>UNITY_ATOM_ATTR
33 1
charge -1
@<TRIPOS>BOND
     1    33    34   ar
     2    34    35   ar
     3    34    32    1
     4     1    32    1
     5     1    36    1
     6    36    37    1
     7    37    38    1
     8    37    39    1
     9    37    40    1
    10     1     2    1
    11     2     3    1
    12     3     4    1
    13     4     5   ar
    14     5     6   ar
    15     6    12    1
    16    12    13   ar
    17    13    14   ar
    18    14    15   ar
    19    15    18    1
    20    18    19   am
    21    19    20    2
    22    19    21   am
    23    21    24    1
    24    24    25   ar
    25    25    26   ar
    26    26    27   ar
    27    27    28    1
    28    27    29   ar
    29    29    30    1
    30    29    31   ar
    31    15    16   ar
    32    16    17   ar
    33     6     7   ar
    34     7     8   ar
    35     8     9   ar
    36     9    10    1
    37    10    11    2
    38    10     1    1
    39     9     4   ar
    40    17    12   ar
    41    31    24   ar
    42    18    22    1
    43    21    23    1
