@<TRIPOS>MOLECULE
*****
 32 35 0 0 0
SMALL
GASTEIGER

@<TRIPOS>ATOM
      1 C          65.3330   92.6944   11.7808 C.3     1  UNL1        0.1849
      2 C          64.7145   92.3866   10.4494 C.3     1  UNL1        0.0686
      3 C          63.5296   91.4706   10.3666 C.3     1  UNL1        0.1010
      4 N          62.9631   90.8623   11.6154 N.am    1  UNL1       -0.2438
      5 C          63.5816   91.1701   12.9468 C.2     1  UNL1        0.4052
      6 O          63.0152   90.5619   14.1955 O.2     1  UNL1       -0.2262
      7 O          64.7666   92.0861   13.0295 O.3     1  UNL1       -0.4350
      8 C          66.2214   93.5076   10.8867 C.ar    1  UNL1        0.0161
      9 C          67.2621   92.8295   10.0458 C.ar    1  UNL1       -0.0009
     10 C          68.1505   93.6428    9.1517 C.ar    1  UNL1       -0.0002
     11 C          67.9981   95.1341    9.0985 C.ar    1  UNL1       -0.0000
     12 C          66.9574   95.8121    9.9394 C.ar    1  UNL1       -0.0002
     13 C          66.0691   94.9989   10.8335 C.ar    1  UNL1       -0.0009
     14 C          61.7782   89.9463   11.5326 C.3     1  UNL1        0.1011
     15 C          60.4008   90.5154   11.3626 C.3     1  UNL1        0.0265
     16 C          61.9707   88.4613   11.6198 C.ar    1  UNL1       -0.0042
     17 C          61.0665   87.5415   10.8540 C.ar    1  UNL1       -0.0027
     18 C          61.2590   86.0565   10.9412 C.ar    1  UNL1       -0.0003
     19 C          62.3557   85.4912   11.7943 C.ar    1  UNL1        0.0002
     20 C          63.2600   86.4110   12.5602 C.ar    1  UNL1       -0.0003
     21 C          63.0674   87.8960   12.4729 C.ar    1  UNL1       -0.0027
     22 C          62.5482   84.0063   11.8815 C.ar    1  UNL1        0.0062
     23 C          63.0296   83.2408   10.6848 C.ar    1  UNL1        0.0189
     24 C          63.2221   81.7558   10.7720 C.ar    1  UNL1        0.0784
     25 N          62.9333   81.0361   12.0560 N.ar    1  UNL1       -0.2922
     26 C          63.1258   79.5511   12.1432 C.3     1  UNL1        0.1336
     27 C          62.4519   81.8015   13.2528 C.ar    1  UNL1        0.2610
     28 O          62.1631   81.0820   14.5368 O.2     1  UNL1       -0.2670
     29 C          62.2594   83.2866   13.1656 C.ar    1  UNL1        0.0608
     30 C          66.2601   93.2846   12.8018 C.3     1  UNL1        0.1864
     31 C          67.0532   93.1681   15.2731 C.3     1  UNL1        0.1743
     32 O          65.9444   93.1593   14.2628 O.3     1  UNL1       -0.3470
@<TRIPOS>BOND
     1    31    32    1
     2    32    30    1
     3     1    30    1
     4     1     8    1
     5     8     9   ar
     6     9    10   ar
     7    10    11   ar
     8    11    12   ar
     9    12    13   ar
    10     1     2    1
    11     2     3    1
    12     3     4    1
    13     4    14    1
    14    14    15    1
    15    14    16    1
    16    16    17   ar
    17    17    18   ar
    18    18    19   ar
    19    19    22    1
    20    22    23   ar
    21    23    24   ar
    22    24    25   ar
    23    25    26    1
    24    25    27   ar
    25    27    28    2
    26    27    29   ar
    27    19    20   ar
    28    20    21   ar
    29     4     5   am
    30     5     6    2
    31     5     7    1
    32     7     1    1
    33    13     8   ar
    34    21    16   ar
    35    29    22   ar
@<TRIPOS>MOLECULE
*****
 32 35 0 0 0
SMALL
GASTEIGER

@<TRIPOS>ATOM
      1 C          63.5088   84.9846   14.2969 C.3     1  UNL1        0.1849
      2 C          63.8393   86.0026   13.2460 C.3     1  UNL1        0.0686
      3 C          63.9359   87.4540   13.6119 C.3     1  UNL1        0.1010
      4 N          63.7021   87.8875   15.0288 N.am    1  UNL1       -0.2438
      5 C          63.3716   86.8695   16.0797 C.2     1  UNL1        0.4052
      6 O          63.1377   87.3030   17.4966 O.2     1  UNL1       -0.2262
      7 O          63.2749   85.4181   15.7138 O.3     1  UNL1       -0.4350
      8 C          63.6442   84.0896   13.1008 C.ar    1  UNL1        0.0161
      9 C          62.8887   84.3998   11.8426 C.ar    1  UNL1       -0.0009
     10 C          63.0241   83.5048   10.6466 C.ar    1  UNL1       -0.0002
     11 C          63.9150   82.2996   10.7087 C.ar    1  UNL1       -0.0000
     12 C          64.6705   81.9894   11.9668 C.ar    1  UNL1       -0.0002
     13 C          64.5351   82.8844   13.1629 C.ar    1  UNL1       -0.0009
     14 C          63.7987   89.3390   15.3947 C.3     1  UNL1        0.1011
     15 C          63.3166   89.8082   16.7354 C.3     1  UNL1        0.0265
     16 C          64.3774   90.3212   14.4199 C.ar    1  UNL1       -0.0042
     17 C          65.7204   90.9358   14.6822 C.ar    1  UNL1       -0.0027
     18 C          66.2991   91.9180   13.7075 C.ar    1  UNL1       -0.0003
     19 C          65.5348   92.2858   12.4703 C.ar    1  UNL1        0.0002
     20 C          64.1918   91.6713   12.2079 C.ar    1  UNL1       -0.0003
     21 C          63.6132   90.6891   13.1827 C.ar    1  UNL1       -0.0027
     22 C          66.1134   93.2680   11.4955 C.ar    1  UNL1        0.0062
     23 C          65.9250   94.7402   11.7129 C.ar    1  UNL1        0.0189
     24 C          66.5037   95.7225   10.7382 C.ar    1  UNL1        0.0784
     25 N          67.2708   95.2327    9.5458 N.ar    1  UNL1       -0.2922
     26 C          67.8494   96.2150    8.5711 C.3     1  UNL1        0.1336
     27 C          67.4592   93.7605    9.3283 C.ar    1  UNL1        0.2610
     28 O          68.2263   93.2707    8.1360 O.2     1  UNL1       -0.2670
     29 C          66.8805   92.7782   10.3031 C.ar    1  UNL1        0.0608
     30 C          63.2253   83.6558   14.9325 C.3     1  UNL1        0.1864
     31 C          61.6208   81.6816   14.4049 C.3     1  UNL1        0.1743
     32 O          61.8391   83.0843   14.8895 O.3     1  UNL1       -0.3470
@<TRIPOS>BOND
     1    31    32    1
     2    32    30    1
     3     1    30    1
     4     1     8    1
     5     8     9   ar
     6     9    10   ar
     7    10    11   ar
     8    11    12   ar
     9    12    13   ar
    10     1     2    1
    11     2     3    1
    12     3     4    1
    13     4    14    1
    14    14    15    1
    15    14    16    1
    16    16    17   ar
    17    17    18   ar
    18    18    19   ar
    19    19    22    1
    20    22    23   ar
    21    23    24   ar
    22    24    25   ar
    23    25    26    1
    24    25    27   ar
    25    27    28    2
    26    27    29   ar
    27    19    20   ar
    28    20    21   ar
    29     4     5   am
    30     5     6    2
    31     5     7    1
    32     7     1    1
    33    13     8   ar
    34    21    16   ar
    35    29    22   ar
@<TRIPOS>MOLECULE
*****
 32 35 0 0 0
SMALL
GASTEIGER

@<TRIPOS>ATOM
      1 C          65.8528   92.2146   12.7101 C.3     1  UNL1        0.1849
      2 C          65.3504   91.1705   13.6626 C.3     1  UNL1        0.0686
      3 C          64.1747   90.3173   13.2883 C.3     1  UNL1        0.1010
      4 N          63.5015   90.5084   11.9615 N.am    1  UNL1       -0.2438
      5 C          64.0039   91.5526   11.0091 C.2     1  UNL1        0.4052
      6 O          63.3307   91.7437    9.6823 O.2     1  UNL1       -0.2262
      7 O          65.1795   92.4057   11.3833 O.3     1  UNL1       -0.4350
      8 C          66.8168   92.4097   13.8427 C.ar    1  UNL1        0.0161
      9 C          68.2822   92.1709   13.6299 C.ar    1  UNL1       -0.0009
     10 C          69.2461   92.3660   14.7624 C.ar    1  UNL1       -0.0002
     11 C          68.7446   92.8000   16.1078 C.ar    1  UNL1       -0.0000
     12 C          67.2791   93.0388   16.3207 C.ar    1  UNL1       -0.0002
     13 C          66.3152   92.8437   15.1881 C.ar    1  UNL1       -0.0009
     14 C          62.3259   89.6553   11.5873 C.3     1  UNL1        0.1011
     15 C          61.0923   90.2879   11.0144 C.3     1  UNL1        0.0265
     16 C          62.3838   88.1697   11.7859 C.ar    1  UNL1       -0.0042
     17 C          61.5314   87.2667   10.9445 C.ar    1  UNL1       -0.0027
     18 C          61.5894   85.7810   11.1431 C.ar    1  UNL1       -0.0003
     19 C          62.4997   85.1983   12.1831 C.ar    1  UNL1        0.0002
     20 C          63.3522   86.1013   13.0246 C.ar    1  UNL1       -0.0003
     21 C          63.2942   87.5870   12.8259 C.ar    1  UNL1       -0.0027
     22 C          62.5577   83.7127   12.3818 C.ar    1  UNL1        0.0062
     23 C          62.3743   83.1316   13.7524 C.ar    1  UNL1        0.0189
     24 C          62.4323   81.6460   13.9511 C.ar    1  UNL1        0.0784
     25 N          62.6737   80.7414   12.7791 N.ar    1  UNL1       -0.2922
     26 C          62.7316   79.2558   12.9778 C.3     1  UNL1        0.1336
     27 C          62.8571   81.3224   11.4084 C.ar    1  UNL1        0.2610
     28 O          63.0984   80.4179   10.2365 O.2     1  UNL1       -0.2670
     29 C          62.7991   82.8081   11.2098 C.ar    1  UNL1        0.0608
     30 C          66.6900   93.3266   12.1510 C.3     1  UNL1        0.1864
     31 C          66.4822   95.5636   10.8460 C.3     1  UNL1        0.1743
     32 O          66.1149   94.7058   12.0205 O.3     1  UNL1       -0.3470
@<TRIPOS>BOND
     1    31    32    1
     2    32    30    1
     3     1    30    1
     4     1     8    1
     5     8     9   ar
     6     9    10   ar
     7    10    11   ar
     8    11    12   ar
     9    12    13   ar
    10     1     2    1
    11     2     3    1
    12     3     4    1
    13     4    14    1
    14    14    15    1
    15    14    16    1
    16    16    17   ar
    17    17    18   ar
    18    18    19   ar
    19    19    22    1
    20    22    23   ar
    21    23    24   ar
    22    24    25   ar
    23    25    26    1
    24    25    27   ar
    25    27    28    2
    26    27    29   ar
    27    19    20   ar
    28    20    21   ar
    29     4     5   am
    30     5     6    2
    31     5     7    1
    32     7     1    1
    33    13     8   ar
    34    21    16   ar
    35    29    22   ar
@<TRIPOS>MOLECULE
*****
 32 35 0 0 0
SMALL
GASTEIGER

@<TRIPOS>ATOM
      1 C          63.4666   84.5076   14.1805 C.3     1  UNL1        0.1849
      2 C          63.6954   85.5729   13.1497 C.3     1  UNL1        0.0686
      3 C          63.7712   87.0128   13.5632 C.3     1  UNL1        0.1010
      4 N          63.6182   87.3873   15.0076 N.am    1  UNL1       -0.2438
      5 C          63.3893   86.3220   16.0385 C.2     1  UNL1        0.4052
      6 O          63.2363   86.6966   17.4829 O.2     1  UNL1       -0.2262
      7 O          63.3136   84.8821   15.6250 O.3     1  UNL1       -0.4350
      8 C          63.5503   83.6609   12.9451 C.ar    1  UNL1        0.0161
      9 C          64.4200   82.4389   12.9309 C.ar    1  UNL1       -0.0009
     10 C          64.5037   81.5923   11.6955 C.ar    1  UNL1       -0.0002
     11 C          63.7176   81.9677   10.4744 C.ar    1  UNL1       -0.0000
     12 C          62.8478   83.1897   10.4886 C.ar    1  UNL1       -0.0002
     13 C          62.7642   84.0363   11.7240 C.ar    1  UNL1       -0.0009
     14 C          63.6939   88.8272   15.4211 C.3     1  UNL1        0.1011
     15 C          63.1925   89.2472   16.7711 C.3     1  UNL1        0.0265
     16 C          64.2711   89.8470   14.4848 C.ar    1  UNL1       -0.0042
     17 C          63.5434   90.2030   13.2224 C.ar    1  UNL1       -0.0027
     18 C          64.1206   91.2229   12.2861 C.ar    1  UNL1       -0.0003
     19 C          65.4256   91.8868   12.6122 C.ar    1  UNL1        0.0002
     20 C          66.1534   91.5309   13.8747 C.ar    1  UNL1       -0.0003
     21 C          65.5761   90.5110   14.8109 C.ar    1  UNL1       -0.0027
     22 C          66.0028   92.9067   11.6760 C.ar    1  UNL1        0.0062
     23 C          66.7115   92.4648   10.4300 C.ar    1  UNL1        0.0189
     24 C          67.2888   93.4846    9.4937 C.ar    1  UNL1        0.0784
     25 N          67.1573   94.9464    9.8033 N.ar    1  UNL1       -0.2922
     26 C          67.7346   95.9662    8.8670 C.3     1  UNL1        0.1336
     27 C          66.4486   95.3884   11.0492 C.ar    1  UNL1        0.2610
     28 O          66.3171   96.8501   11.3589 O.2     1  UNL1       -0.2670
     29 C          65.8713   94.3685   11.9856 C.ar    1  UNL1        0.0608
     30 C          63.2669   83.1482   14.7824 C.3     1  UNL1        0.1864
     31 C          61.4491   81.3837   14.2058 C.3     1  UNL1        0.1743
     32 O          61.8807   82.6044   14.9633 O.3     1  UNL1       -0.3470
@<TRIPOS>BOND
     1    31    32    1
     2    32    30    1
     3     1    30    1
     4     1     8    1
     5     8     9   ar
     6     9    10   ar
     7    10    11   ar
     8    11    12   ar
     9    12    13   ar
    10     1     2    1
    11     2     3    1
    12     3     4    1
    13     4    14    1
    14    14    15    1
    15    14    16    1
    16    16    17   ar
    17    17    18   ar
    18    18    19   ar
    19    19    22    1
    20    22    23   ar
    21    23    24   ar
    22    24    25   ar
    23    25    26    1
    24    25    27   ar
    25    27    28    2
    26    27    29   ar
    27    19    20   ar
    28    20    21   ar
    29     4     5   am
    30     5     6    2
    31     5     7    1
    32     7     1    1
    33    13     8   ar
    34    21    16   ar
    35    29    22   ar
@<TRIPOS>MOLECULE
*****
 32 35 0 0 0
SMALL
GASTEIGER

@<TRIPOS>ATOM
      1 C          62.9497   85.2901   12.7273 C.3     1  UNL1        0.1849
      2 C          63.8662   85.3898   13.9105 C.3     1  UNL1        0.0686
      3 C          64.1953   86.7323   14.4932 C.3     1  UNL1        0.1010
      4 N          63.6078   87.9750   13.8926 N.am    1  UNL1       -0.2438
      5 C          62.6914   87.8752   12.7094 C.2     1  UNL1        0.4052
      6 O          62.1039   89.1179   12.1089 O.2     1  UNL1       -0.2262
      7 O          62.3623   86.5328   12.1267 O.3     1  UNL1       -0.4350
      8 C          63.2558   83.8375   12.9429 C.ar    1  UNL1        0.0161
      9 C          64.4894   83.2334   12.3402 C.ar    1  UNL1       -0.0009
     10 C          64.7954   81.7809   12.5558 C.ar    1  UNL1       -0.0002
     11 C          63.8678   80.9325   13.3741 C.ar    1  UNL1       -0.0000
     12 C          62.6342   81.5365   13.9768 C.ar    1  UNL1       -0.0002
     13 C          62.3282   82.9890   13.7612 C.ar    1  UNL1       -0.0009
     14 C          63.9369   89.3174   14.4754 C.3     1  UNL1        0.1011
     15 C          63.6908   89.5840   15.9309 C.3     1  UNL1        0.0265
     16 C          64.5121   90.3932   13.6027 C.ar    1  UNL1       -0.0042
     17 C          65.7881   91.0764   13.9966 C.ar    1  UNL1       -0.0027
     18 C          66.3633   92.1523   13.1239 C.ar    1  UNL1       -0.0003
     19 C          65.6625   92.5450   11.8571 C.ar    1  UNL1        0.0002
     20 C          64.3864   91.8619   11.4631 C.ar    1  UNL1       -0.0003
     21 C          63.8113   90.7860   12.3359 C.ar    1  UNL1       -0.0027
     22 C          66.2376   93.6208   10.9844 C.ar    1  UNL1        0.0062
     23 C          66.0867   95.0619   11.3723 C.ar    1  UNL1        0.0189
     24 C          66.6618   96.1378   10.4996 C.ar    1  UNL1        0.0784
     25 N          67.3879   95.7726    9.2388 N.ar    1  UNL1       -0.2922
     26 C          67.9630   96.8485    8.3661 C.3     1  UNL1        0.1336
     27 C          67.5388   94.3316    8.8508 C.ar    1  UNL1        0.2610
     28 O          68.2649   93.9664    7.5901 O.2     1  UNL1       -0.2670
     29 C          66.9637   93.2557    9.7236 C.ar    1  UNL1        0.0608
     30 C          62.1395   84.6858   11.6189 C.3     1  UNL1        0.1864
     31 C          63.1863   84.6707    9.2411 C.3     1  UNL1        0.1743
     32 O          62.2237   85.2533   10.2330 O.3     1  UNL1       -0.3470
@<TRIPOS>BOND
     1    31    32    1
     2    32    30    1
     3     1    30    1
     4     1     8    1
     5     8     9   ar
     6     9    10   ar
     7    10    11   ar
     8    11    12   ar
     9    12    13   ar
    10     1     2    1
    11     2     3    1
    12     3     4    1
    13     4    14    1
    14    14    15    1
    15    14    16    1
    16    16    17   ar
    17    17    18   ar
    18    18    19   ar
    19    19    22    1
    20    22    23   ar
    21    23    24   ar
    22    24    25   ar
    23    25    26    1
    24    25    27   ar
    25    27    28    2
    26    27    29   ar
    27    19    20   ar
    28    20    21   ar
    29     4     5   am
    30     5     6    2
    31     5     7    1
    32     7     1    1
    33    13     8   ar
    34    21    16   ar
    35    29    22   ar
@<TRIPOS>MOLECULE
*****
 32 35 0 0 0
SMALL
GASTEIGER

@<TRIPOS>ATOM
      1 C          63.3829   84.7321   12.5714 C.3     1  UNL1        0.1849
      2 C          62.4166   84.9826   11.4518 C.3     1  UNL1        0.0686
      3 C          61.8555   86.3573   11.2389 C.3     1  UNL1        0.1010
      4 N          62.2606   87.4815   12.1456 N.am    1  UNL1       -0.2438
      5 C          63.2269   87.2310   13.2652 C.2     1  UNL1        0.4052
      6 O          63.6320   88.3552   14.1719 O.2     1  UNL1       -0.2262
      7 O          63.7881   85.8563   13.4781 O.3     1  UNL1       -0.4350
      8 C          63.3039   83.3548   11.9825 C.ar    1  UNL1        0.0161
      9 C          62.6019   82.2592   12.7288 C.ar    1  UNL1       -0.0009
     10 C          62.5229   80.8819   12.1399 C.ar    1  UNL1       -0.0002
     11 C          63.1458   80.6002   10.8048 C.ar    1  UNL1       -0.0000
     12 C          63.8478   81.6958   10.0585 C.ar    1  UNL1       -0.0002
     13 C          63.9268   83.0731   10.6474 C.ar    1  UNL1       -0.0009
     14 C          61.6994   88.8562   11.9327 C.3     1  UNL1        0.1011
     15 C          60.2291   89.1005   12.1019 C.3     1  UNL1        0.0265
     16 C          62.6084   89.9864   11.5506 C.ar    1  UNL1       -0.0042
     17 C          62.6151   90.5001   10.1413 C.ar    1  UNL1       -0.0027
     18 C          63.5241   91.6304    9.7592 C.ar    1  UNL1       -0.0003
     19 C          64.4266   92.2471   10.7864 C.ar    1  UNL1        0.0002
     20 C          64.4200   91.7335   12.1958 C.ar    1  UNL1       -0.0003
     21 C          63.5110   90.6032   12.5778 C.ar    1  UNL1       -0.0027
     22 C          65.3356   93.3774   10.4044 C.ar    1  UNL1        0.0062
     23 C          64.8039   94.7784   10.3395 C.ar    1  UNL1        0.0189
     24 C          65.7129   95.9088    9.9574 C.ar    1  UNL1        0.0784
     25 N          67.1538   95.6381    9.6403 N.ar    1  UNL1       -0.2922
     26 C          68.0628   96.7684    9.2582 C.3     1  UNL1        0.1336
     27 C          67.6857   94.2370    9.7052 C.ar    1  UNL1        0.2610
     28 O          69.1265   93.9663    9.3880 O.2     1  UNL1       -0.2670
     29 C          66.7766   93.1067   10.0872 C.ar    1  UNL1        0.0608
     30 C          64.3218   84.0033   13.4865 C.3     1  UNL1        0.1864
     31 C          63.0390   83.8819   15.7426 C.3     1  UNL1        0.1743
     32 O          64.2686   84.2481   14.9654 O.3     1  UNL1       -0.3470
@<TRIPOS>BOND
     1    31    32    1
     2    32    30    1
     3     1    30    1
     4     1     8    1
     5     8     9   ar
     6     9    10   ar
     7    10    11   ar
     8    11    12   ar
     9    12    13   ar
    10     1     2    1
    11     2     3    1
    12     3     4    1
    13     4    14    1
    14    14    15    1
    15    14    16    1
    16    16    17   ar
    17    17    18   ar
    18    18    19   ar
    19    19    22    1
    20    22    23   ar
    21    23    24   ar
    22    24    25   ar
    23    25    26    1
    24    25    27   ar
    25    27    28    2
    26    27    29   ar
    27    19    20   ar
    28    20    21   ar
    29     4     5   am
    30     5     6    2
    31     5     7    1
    32     7     1    1
    33    13     8   ar
    34    21    16   ar
    35    29    22   ar
