@<TRIPOS>MOLECULE
*****
 23 25 0 0 0
SMALL
GASTEIGER

@<TRIPOS>ATOM
      1 O          63.7700   89.7283   14.7226 O.2     1  UNL1       -0.2862
      2 C          63.6776   90.0867   13.2690 C.ar    1  UNL1        0.2047
      3 C          62.7919   89.2923   12.3556 C.ar    1  UNL1        0.0797
      4 C          62.6994   89.6507   10.9020 C.ar    1  UNL1        0.1484
      5 O          63.4926   90.8035   10.3618 O.2     1  UNL1       -0.4531
      6 C          64.3783   91.5978   11.2753 C.ar    1  UNL1        0.1545
      7 C          65.1716   92.7507   10.7351 C.ar    1  UNL1        0.0775
      8 C          66.0573   93.5451   11.6486 C.ar    1  UNL1        0.1737
      9 O          66.8506   94.6979   11.1084 O.3     1  UNL1       -0.5027
     10 C          66.1498   93.1867   13.1022 C.ar    1  UNL1        0.2022
     11 O          67.0355   93.9811   14.0157 O.3     1  UNL1       -0.5009
     12 C          65.3565   92.0339   13.6423 C.ar    1  UNL1        0.1766
     13 O          65.4490   91.6755   15.0960 O.3     1  UNL1       -0.5027
     14 C          64.4708   91.2394   12.7289 C.ar    1  UNL1        0.1104
     15 H          66.7929   94.9218   10.2004 H       1  UNL1        0.2923
     16 H          67.5310   94.7013   13.6782 H       1  UNL1        0.2924
     17 H          66.0023   92.1717   15.6666 H       1  UNL1        0.2923
     18 C          61.8136   88.8562    9.9885 C.ar    1  UNL1        0.0347
     19 C          60.6836   89.5292    9.2673 C.ar    1  UNL1        0.0030
     20 C          59.7979   88.7349    8.3539 C.ar    1  UNL1        0.0001
     21 C          60.0422   87.2674    8.1616 C.ar    1  UNL1        0.0000
     22 C          61.1722   86.5944    8.8828 C.ar    1  UNL1        0.0001
     23 C          62.0579   87.3888    9.7962 C.ar    1  UNL1        0.0030
@<TRIPOS>BOND
     1     1     2    2
     2     2     3   ar
     3     3     4   ar
     4     4    18    1
     5    18    19   ar
     6    19    20   ar
     7    20    21   ar
     8    21    22   ar
     9    22    23   ar
    10     4     5   ar
    11     5     6   ar
    12     6     7   ar
    13     7     8   ar
    14     8     9    1
    15     8    10   ar
    16    10    11    1
    17    10    12   ar
    18    12    13    1
    19    12    14   ar
    20    14     2   ar
    21    23    18   ar
    22    14     6   ar
    23     9    15    1
    24    11    16    1
    25    13    17    1
@<TRIPOS>MOLECULE
*****
 23 25 0 0 0
SMALL
GASTEIGER

@<TRIPOS>ATOM
      1 O          61.6304   88.1130    9.8403 O.2     1  UNL1       -0.2862
      2 C          62.2674   87.4769   11.0401 C.ar    1  UNL1        0.2047
      3 C          62.2083   85.9889   11.2203 C.ar    1  UNL1        0.0797
      4 C          62.8453   85.3528   12.4201 C.ar    1  UNL1        0.1484
      5 O          63.5415   86.2046   13.4398 O.2     1  UNL1       -0.4531
      6 C          63.6006   87.6925   13.2596 C.ar    1  UNL1        0.1545
      7 C          64.2968   88.5444   14.2793 C.ar    1  UNL1        0.0775
      8 C          64.3559   90.0324   14.0992 C.ar    1  UNL1        0.1737
      9 O          65.0521   90.8843   15.1188 O.3     1  UNL1       -0.5027
     10 C          63.7189   90.6685   12.8993 C.ar    1  UNL1        0.2022
     11 O          63.7780   92.1565   12.7192 O.3     1  UNL1       -0.5009
     12 C          63.0227   89.8167   11.8797 C.ar    1  UNL1        0.1766
     13 O          62.3857   90.4528   10.6799 O.3     1  UNL1       -0.5027
     14 C          62.9636   88.3287   12.0598 C.ar    1  UNL1        0.1104
     15 H          65.4500   90.4869   15.8683 H       1  UNL1        0.2923
     16 H          64.2129   92.6886   13.3562 H       1  UNL1        0.2924
     17 H          62.4226   91.3823   10.5674 H       1  UNL1        0.2923
     18 C          62.7862   83.8648   12.6002 C.ar    1  UNL1        0.0347
     19 C          62.4702   83.2843   13.9468 C.ar    1  UNL1        0.0030
     20 C          62.4111   81.7964   14.1269 C.ar    1  UNL1        0.0001
     21 C          62.6679   80.8888   12.9605 C.ar    1  UNL1        0.0000
     22 C          62.9838   81.4693   11.6139 C.ar    1  UNL1        0.0001
     23 C          63.0430   82.9573   11.4338 C.ar    1  UNL1        0.0030
@<TRIPOS>BOND
     1     1     2    2
     2     2     3   ar
     3     3     4   ar
     4     4    18    1
     5    18    19   ar
     6    19    20   ar
     7    20    21   ar
     8    21    22   ar
     9    22    23   ar
    10     4     5   ar
    11     5     6   ar
    12     6     7   ar
    13     7     8   ar
    14     8     9    1
    15     8    10   ar
    16    10    11    1
    17    10    12   ar
    18    12    13    1
    19    12    14   ar
    20    14     2   ar
    21    23    18   ar
    22    14     6   ar
    23     9    15    1
    24    11    16    1
    25    13    17    1
@<TRIPOS>MOLECULE
*****
 23 25 0 0 0
SMALL
GASTEIGER

@<TRIPOS>ATOM
      1 O          63.9568   87.9992   13.6653 O.2     1  UNL1       -0.2862
      2 C          63.2209   87.0649   12.7512 C.ar    1  UNL1        0.2047
      3 C          62.4192   87.6114   11.6073 C.ar    1  UNL1        0.0797
      4 C          61.6833   86.6771   10.6933 C.ar    1  UNL1        0.1484
      5 O          61.7491   85.1963   10.9231 O.2     1  UNL1       -0.4531
      6 C          62.5508   84.6498   12.0670 C.ar    1  UNL1        0.1545
      7 C          62.6166   83.1689   12.2969 C.ar    1  UNL1        0.0775
      8 C          63.4183   82.6224   13.4408 C.ar    1  UNL1        0.1737
      9 O          63.4841   81.1416   13.6707 O.3     1  UNL1       -0.5027
     10 C          64.1542   83.5567   14.3549 C.ar    1  UNL1        0.2022
     11 O          64.9560   83.0101   15.4988 O.3     1  UNL1       -0.5009
     12 C          64.0884   85.0375   14.1250 C.ar    1  UNL1        0.1766
     13 O          64.8244   85.9718   15.0391 O.3     1  UNL1       -0.5027
     14 C          63.2867   85.5841   12.9811 C.ar    1  UNL1        0.1104
     15 H          63.0244   80.5579   13.0997 H       1  UNL1        0.2923
     16 H          64.9971   82.0851   15.6424 H       1  UNL1        0.2924
     17 H          65.3252   85.6304   15.7537 H       1  UNL1        0.2923
     18 C          60.8816   87.2237    9.5493 C.ar    1  UNL1        0.0347
     19 C          60.7844   88.7061    9.3423 C.ar    1  UNL1        0.0030
     20 C          59.9827   89.2527    8.1984 C.ar    1  UNL1        0.0001
     21 C          59.2782   88.3168    7.2615 C.ar    1  UNL1        0.0000
     22 C          59.3753   86.8344    7.4685 C.ar    1  UNL1        0.0001
     23 C          60.1770   86.2878    8.6125 C.ar    1  UNL1        0.0030
@<TRIPOS>BOND
     1     1     2    2
     2     2     3   ar
     3     3     4   ar
     4     4    18    1
     5    18    19   ar
     6    19    20   ar
     7    20    21   ar
     8    21    22   ar
     9    22    23   ar
    10     4     5   ar
    11     5     6   ar
    12     6     7   ar
    13     7     8   ar
    14     8     9    1
    15     8    10   ar
    16    10    11    1
    17    10    12   ar
    18    12    13    1
    19    12    14   ar
    20    14     2   ar
    21    23    18   ar
    22    14     6   ar
    23     9    15    1
    24    11    16    1
    25    13    17    1
@<TRIPOS>MOLECULE
*****
 23 25 0 0 0
SMALL
GASTEIGER

@<TRIPOS>ATOM
      1 O          64.2059   87.8705   13.9227 O.2     1  UNL1       -0.2862
      2 C          63.4213   86.9774   13.0079 C.ar    1  UNL1        0.2047
      3 C          63.3847   85.4982   13.2536 C.ar    1  UNL1        0.0797
      4 C          62.6001   84.6051   12.3388 C.ar    1  UNL1        0.1484
      5 O          61.8521   85.1913   11.1783 O.2     1  UNL1       -0.4531
      6 C          61.8887   86.6706   10.9326 C.ar    1  UNL1        0.1545
      7 C          61.1407   87.2568    9.7720 C.ar    1  UNL1        0.0775
      8 C          61.1774   88.7361    9.5263 C.ar    1  UNL1        0.1737
      9 O          60.4293   89.3224    8.3657 O.3     1  UNL1       -0.5027
     10 C          61.9620   89.6291   10.4410 C.ar    1  UNL1        0.2022
     11 O          61.9986   91.1085   10.1953 O.3     1  UNL1       -0.5009
     12 C          62.7100   89.0429   11.6016 C.ar    1  UNL1        0.1766
     13 O          63.4946   89.9360   12.5163 O.3     1  UNL1       -0.5027
     14 C          62.6733   87.5636   11.8474 C.ar    1  UNL1        0.1104
     15 H          59.9392   88.7645    7.7943 H       1  UNL1        0.2923
     16 H          61.5313   91.4746    9.4703 H       1  UNL1        0.2924
     17 H          63.5175   90.8601   12.3628 H       1  UNL1        0.2923
     18 C          62.5635   83.1258   12.5846 C.ar    1  UNL1        0.0347
     19 C          62.1379   82.5982   13.9227 C.ar    1  UNL1        0.0030
     20 C          62.1012   81.1189   14.1685 C.ar    1  UNL1        0.0001
     21 C          62.4902   80.1672   13.0762 C.ar    1  UNL1        0.0000
     22 C          62.9158   80.6949   11.7382 C.ar    1  UNL1        0.0001
     23 C          62.9524   82.1742   11.4924 C.ar    1  UNL1        0.0030
@<TRIPOS>BOND
     1     1     2    2
     2     2     3   ar
     3     3     4   ar
     4     4    18    1
     5    18    19   ar
     6    19    20   ar
     7    20    21   ar
     8    21    22   ar
     9    22    23   ar
    10     4     5   ar
    11     5     6   ar
    12     6     7   ar
    13     7     8   ar
    14     8     9    1
    15     8    10   ar
    16    10    11    1
    17    10    12   ar
    18    12    13    1
    19    12    14   ar
    20    14     2   ar
    21    23    18   ar
    22    14     6   ar
    23     9    15    1
    24    11    16    1
    25    13    17    1
@<TRIPOS>MOLECULE
*****
 23 25 0 0 0
SMALL
GASTEIGER

@<TRIPOS>ATOM
      1 O          63.0346   89.3873   11.7786 O.2     1  UNL1       -0.2862
      2 C          62.5126   88.0310   11.4072 C.ar    1  UNL1        0.2047
      3 C          62.9704   86.8186   12.1624 C.ar    1  UNL1        0.0797
      4 C          62.4485   85.4622   11.7910 C.ar    1  UNL1        0.1484
      5 O          61.4687   85.3183   10.6644 O.2     1  UNL1       -0.4531
      6 C          61.0109   86.5307    9.9092 C.ar    1  UNL1        0.1545
      7 C          60.0311   86.3868    8.7825 C.ar    1  UNL1        0.0775
      8 C          59.5733   87.5992    8.0273 C.ar    1  UNL1        0.1737
      9 O          58.5934   87.4554    6.9006 O.3     1  UNL1       -0.5027
     10 C          60.0952   88.9556    8.3987 C.ar    1  UNL1        0.2022
     11 O          59.6373   90.1680    7.6434 O.3     1  UNL1       -0.5009
     12 C          61.0750   89.0995    9.5253 C.ar    1  UNL1        0.1766
     13 O          61.5969   90.4558    9.8967 O.3     1  UNL1       -0.5027
     14 C          61.5329   87.8871   10.2806 C.ar    1  UNL1        0.1104
     15 H          58.2674   86.6081    6.6686 H       1  UNL1        0.2923
     16 H          59.0253   90.0781    6.9396 H       1  UNL1        0.2924
     17 H          61.3109   91.2132    9.4249 H       1  UNL1        0.2923
     18 C          62.9064   84.2498   12.5463 C.ar    1  UNL1        0.0347
     19 C          62.7360   82.8849   11.9480 C.ar    1  UNL1        0.0030
     20 C          63.1939   81.6724   12.7032 C.ar    1  UNL1        0.0001
     21 C          63.8221   81.8249   14.0568 C.ar    1  UNL1        0.0000
     22 C          63.9925   83.1898   14.6551 C.ar    1  UNL1        0.0001
     23 C          63.5346   84.4023   13.8998 C.ar    1  UNL1        0.0030
@<TRIPOS>BOND
     1     1     2    2
     2     2     3   ar
     3     3     4   ar
     4     4    18    1
     5    18    19   ar
     6    19    20   ar
     7    20    21   ar
     8    21    22   ar
     9    22    23   ar
    10     4     5   ar
    11     5     6   ar
    12     6     7   ar
    13     7     8   ar
    14     8     9    1
    15     8    10   ar
    16    10    11    1
    17    10    12   ar
    18    12    13    1
    19    12    14   ar
    20    14     2   ar
    21    23    18   ar
    22    14     6   ar
    23     9    15    1
    24    11    16    1
    25    13    17    1
@<TRIPOS>MOLECULE
*****
 23 25 0 0 0
SMALL
GASTEIGER

@<TRIPOS>ATOM
      1 O          64.5023   85.5375   15.8148 O.2     1  UNL1       -0.2862
      2 C          63.9313   85.5645   14.4279 C.ar    1  UNL1        0.2047
      3 C          63.6627   86.8767   13.7528 C.ar    1  UNL1        0.0797
      4 C          63.0917   86.9037   12.3660 C.ar    1  UNL1        0.1484
      5 O          62.7894   85.6184   11.6543 O.2     1  UNL1       -0.4531
      6 C          63.0580   84.3062   12.3294 C.ar    1  UNL1        0.1545
      7 C          62.7556   83.0208   11.6177 C.ar    1  UNL1        0.0775
      8 C          63.0242   81.7085   12.2928 C.ar    1  UNL1        0.1737
      9 O          62.7218   80.4232   11.5811 O.3     1  UNL1       -0.5027
     10 C          63.5952   81.6816   13.6796 C.ar    1  UNL1        0.2022
     11 O          63.8638   80.3692   14.3547 O.3     1  UNL1       -0.5009
     12 C          63.8976   82.9669   14.3913 C.ar    1  UNL1        0.1766
     13 O          64.4685   82.9399   15.7781 O.3     1  UNL1       -0.5027
     14 C          63.6290   84.2792   13.7162 C.ar    1  UNL1        0.1104
     15 H          62.3652   80.4400   10.7148 H       1  UNL1        0.2923
     16 H          63.6749   79.5664   13.9101 H       1  UNL1        0.2924
     17 H          64.6363   82.1201   16.1999 H       1  UNL1        0.2923
     18 C          62.8231   88.2160   11.6909 C.ar    1  UNL1        0.0347
     19 C          63.3100   89.4920   12.3112 C.ar    1  UNL1        0.0030
     20 C          63.0415   90.8043   11.6362 C.ar    1  UNL1        0.0001
     21 C          62.2860   90.8407   10.3408 C.ar    1  UNL1        0.0000
     22 C          61.7991   89.5647    9.7205 C.ar    1  UNL1        0.0001
     23 C          62.0677   88.2523   10.3956 C.ar    1  UNL1        0.0030
@<TRIPOS>BOND
     1     1     2    2
     2     2     3   ar
     3     3     4   ar
     4     4    18    1
     5    18    19   ar
     6    19    20   ar
     7    20    21   ar
     8    21    22   ar
     9    22    23   ar
    10     4     5   ar
    11     5     6   ar
    12     6     7   ar
    13     7     8   ar
    14     8     9    1
    15     8    10   ar
    16    10    11    1
    17    10    12   ar
    18    12    13    1
    19    12    14   ar
    20    14     2   ar
    21    23    18   ar
    22    14     6   ar
    23     9    15    1
    24    11    16    1
    25    13    17    1
@<TRIPOS>MOLECULE
*****
 23 25 0 0 0
SMALL
GASTEIGER

@<TRIPOS>ATOM
      1 O          62.9859   86.3737   17.8896 O.2     1  UNL1       -0.2862
      2 C          63.2294   86.3793   16.4095 C.ar    1  UNL1        0.2047
      3 C          63.2508   85.0872   15.6480 C.ar    1  UNL1        0.0797
      4 C          63.4943   85.0928   14.1679 C.ar    1  UNL1        0.1484
      5 O          63.7163   86.3906   13.4493 O.2     1  UNL1       -0.4531
      6 C          63.6949   87.6827   14.2107 C.ar    1  UNL1        0.1545
      7 C          63.9169   88.9806   13.4921 C.ar    1  UNL1        0.0775
      8 C          63.8955   90.2727   14.2536 C.ar    1  UNL1        0.1737
      9 O          64.1175   91.5706   13.5349 O.3     1  UNL1       -0.5027
     10 C          63.6520   90.2671   15.7337 C.ar    1  UNL1        0.2022
     11 O          63.6306   91.5593   16.4951 O.3     1  UNL1       -0.5009
     12 C          63.4300   88.9693   16.4523 C.ar    1  UNL1        0.1766
     13 O          63.1865   88.9637   17.9324 O.3     1  UNL1       -0.5027
     14 C          63.4514   87.6771   15.6908 C.ar    1  UNL1        0.1104
     15 H          64.2696   91.5741   12.6104 H       1  UNL1        0.2923
     16 H          63.7693   92.3700   16.0462 H       1  UNL1        0.2924
     17 H          63.1731   89.7709   18.4081 H       1  UNL1        0.2923
     18 C          63.5157   83.8006   13.4065 C.ar    1  UNL1        0.0347
     19 C          64.1343   83.7448   12.0411 C.ar    1  UNL1        0.0030
     20 C          64.1558   82.4527   11.2796 C.ar    1  UNL1        0.0001
     21 C          63.5586   81.2162   11.8835 C.ar    1  UNL1        0.0000
     22 C          62.9400   81.2720   13.2489 C.ar    1  UNL1        0.0001
     23 C          62.9186   82.5642   14.0104 C.ar    1  UNL1        0.0030
@<TRIPOS>BOND
     1     1     2    2
     2     2     3   ar
     3     3     4   ar
     4     4    18    1
     5    18    19   ar
     6    19    20   ar
     7    20    21   ar
     8    21    22   ar
     9    22    23   ar
    10     4     5   ar
    11     5     6   ar
    12     6     7   ar
    13     7     8   ar
    14     8     9    1
    15     8    10   ar
    16    10    11    1
    17    10    12   ar
    18    12    13    1
    19    12    14   ar
    20    14     2   ar
    21    23    18   ar
    22    14     6   ar
    23     9    15    1
    24    11    16    1
    25    13    17    1
@<TRIPOS>MOLECULE
*****
 23 25 0 0 0
SMALL
GASTEIGER

@<TRIPOS>ATOM
      1 O          64.6449   83.0422    9.6986 O.2     1  UNL1       -0.2862
      2 C          63.6329   83.9254   10.3663 C.ar    1  UNL1        0.2047
      3 C          62.8652   84.9298    9.5590 C.ar    1  UNL1        0.0797
      4 C          61.8532   85.8130   10.2267 C.ar    1  UNL1        0.1484
      5 O          61.6089   85.6918   11.7017 O.2     1  UNL1       -0.4531
      6 C          62.3767   84.6874   12.5090 C.ar    1  UNL1        0.1545
      7 C          62.1324   84.5661   13.9840 C.ar    1  UNL1        0.0775
      8 C          62.9002   83.5618   14.7913 C.ar    1  UNL1        0.1737
      9 O          62.6559   83.4405   16.2664 O.3     1  UNL1       -0.5027
     10 C          63.9122   82.6786   14.1236 C.ar    1  UNL1        0.2022
     11 O          64.6799   81.6741   14.9309 O.3     1  UNL1       -0.5009
     12 C          64.1564   82.7998   12.6486 C.ar    1  UNL1        0.1766
     13 O          65.1684   81.9166   11.9809 O.3     1  UNL1       -0.5027
     14 C          63.3886   83.8042   11.8413 C.ar    1  UNL1        0.1104
     15 H          62.0238   83.9922   16.6835 H       1  UNL1        0.2923
     16 H          64.5273   81.5984   15.8523 H       1  UNL1        0.2924
     17 H          65.6480   81.2892   12.4852 H       1  UNL1        0.2923
     18 C          61.0854   86.8174    9.4194 C.ar    1  UNL1        0.0347
     19 C          60.1489   86.3559    8.3423 C.ar    1  UNL1        0.0030
     20 C          59.3812   87.3602    7.5350 C.ar    1  UNL1        0.0001
     21 C          59.5499   88.8261    7.8047 C.ar    1  UNL1        0.0000
     22 C          60.4864   89.2877    8.8817 C.ar    1  UNL1        0.0001
     23 C          61.2541   88.2832    9.6891 C.ar    1  UNL1        0.0030
@<TRIPOS>BOND
     1     1     2    2
     2     2     3   ar
     3     3     4   ar
     4     4    18    1
     5    18    19   ar
     6    19    20   ar
     7    20    21   ar
     8    21    22   ar
     9    22    23   ar
    10     4     5   ar
    11     5     6   ar
    12     6     7   ar
    13     7     8   ar
    14     8     9    1
    15     8    10   ar
    16    10    11    1
    17    10    12   ar
    18    12    13    1
    19    12    14   ar
    20    14     2   ar
    21    23    18   ar
    22    14     6   ar
    23     9    15    1
    24    11    16    1
    25    13    17    1
@<TRIPOS>MOLECULE
*****
 23 25 0 0 0
SMALL
GASTEIGER

@<TRIPOS>ATOM
      1 O          64.7768   86.9173   15.0873 O.2     1  UNL1       -0.2862
      2 C          64.0351   86.4160   13.8837 C.ar    1  UNL1        0.2047
      3 C          63.8823   84.9411   13.6575 C.ar    1  UNL1        0.0797
      4 C          63.1406   84.4398   12.4539 C.ar    1  UNL1        0.1484
      5 O          62.5517   85.4134   11.4765 O.2     1  UNL1       -0.4531
      6 C          62.7045   86.8883   11.7028 C.ar    1  UNL1        0.1545
      7 C          62.1156   87.8620   10.7254 C.ar    1  UNL1        0.0775
      8 C          62.2684   89.3369   10.9516 C.ar    1  UNL1        0.1737
      9 O          61.6795   90.3106    9.9742 O.3     1  UNL1       -0.5027
     10 C          63.0101   89.8382   12.1552 C.ar    1  UNL1        0.2022
     11 O          63.1629   91.3132   12.3814 O.3     1  UNL1       -0.5009
     12 C          63.5990   88.8646   13.1325 C.ar    1  UNL1        0.1766
     13 O          64.3407   89.3659   14.3361 O.3     1  UNL1       -0.5027
     14 C          63.4462   87.3896   12.9063 C.ar    1  UNL1        0.1104
     15 H          61.2162   89.9975    9.2224 H       1  UNL1        0.2923
     16 H          62.7950   91.9214   11.7708 H       1  UNL1        0.2924
     17 H          64.4361   90.2873   14.4774 H       1  UNL1        0.2923
     18 C          62.9878   82.9648   12.2277 C.ar    1  UNL1        0.0347
     19 C          62.4131   82.0960   13.3071 C.ar    1  UNL1        0.0030
     20 C          62.2603   80.6211   13.0810 C.ar    1  UNL1        0.0001
     21 C          62.6822   80.0148   11.7754 C.ar    1  UNL1        0.0000
     22 C          63.2568   80.8835   10.6960 C.ar    1  UNL1        0.0001
     23 C          63.4096   82.3585   10.9222 C.ar    1  UNL1        0.0030
@<TRIPOS>BOND
     1     1     2    2
     2     2     3   ar
     3     3     4   ar
     4     4    18    1
     5    18    19   ar
     6    19    20   ar
     7    20    21   ar
     8    21    22   ar
     9    22    23   ar
    10     4     5   ar
    11     5     6   ar
    12     6     7   ar
    13     7     8   ar
    14     8     9    1
    15     8    10   ar
    16    10    11    1
    17    10    12   ar
    18    12    13    1
    19    12    14   ar
    20    14     2   ar
    21    23    18   ar
    22    14     6   ar
    23     9    15    1
    24    11    16    1
    25    13    17    1
