@<TRIPOS>MOLECULE
*****
 35 39 0 0 0
SMALL
GASTEIGER

@<TRIPOS>ATOM
      1 C          63.1972   86.5457   12.8704 C.2     1  UNL1        0.2507
      2 O          63.7295   87.4483   13.9436 O.2     1  UNL1       -0.2698
      3 N          62.5018   87.1292   11.6763 N.am    1  UNL1       -0.2723
      4 C          61.9695   86.2265   10.6030 C.3     1  UNL1        0.1257
      5 C          61.2741   86.8100    9.4089 C.3     1  UNL1        0.1637
      6 O          61.1110   88.2963    9.2881 O.3     1  UNL1       -0.3502
      7 C          61.6434   89.1989   10.3613 C.3     1  UNL1        0.1622
      8 C          62.3387   88.6154   11.5554 C.3     1  UNL1        0.1096
      9 C          63.8471   82.7531   11.8987 C.ar    1  UNL1        0.1726
     10 C          63.6841   84.2393   11.7778 C.ar    1  UNL1        0.0461
     11 C          63.3602   85.0594   12.9913 C.ar    1  UNL1        0.0761
     12 C          63.1994   84.3933   14.3256 C.ar    1  UNL1        0.1104
     13 C          63.3624   82.9072   14.4465 C.ar    1  UNL1        0.0611
     14 C          63.6863   82.0871   13.2331 C.ar    1  UNL1        0.1739
     15 N          62.8756   85.2136   15.5391 N.ar    1  UNL1       -0.1476
     16 N          61.5071   85.4418   16.1095 N.ar    1  UNL1       -0.1447
     17 C          61.6491   86.3188   17.3181 C.ar    1  UNL1        0.1446
     18 C          63.1053   86.6325   17.4947 C.ar    1  UNL1        0.1446
     19 N          63.8633   85.9495   16.3952 N.ar    1  UNL1       -0.1447
     20 C          63.2099   80.8834   10.2111 C.3     1  UNL1        0.2526
     21 O          64.1709   81.9329   10.6853 O.3     1  UNL1       -0.4684
     22 O          63.8493   80.6008   13.3540 O.3     1  UNL1       -0.4683
     23 C          62.6525   79.7333   13.6092 C.3     1  UNL1        0.2526
     24 C          62.8711   89.5181   12.6286 C.3     1  UNL1        0.0488
     25 C          63.8403   90.6083   12.2792 C.ar    1  UNL1       -0.0189
     26 C          63.7587   91.2843   10.9426 C.ar    1  UNL1       -0.0041
     27 C          64.7279   92.3745   10.5932 C.ar    1  UNL1        0.0013
     28 C          65.7787   92.7887   11.5803 C.ar    1  UNL1        0.0209
     29 C          65.8602   92.1127   12.9169 C.ar    1  UNL1        0.1026
     30 C          64.8910   91.0224   13.2663 C.ar    1  UNL1        0.0167
     31 N          66.9109   92.5268   13.9040 N.ar    1  UNL1       -0.1478
     32 N          68.3681   92.1766   13.8397 N.ar    1  UNL1       -0.1447
     33 C          69.0467   92.7973   15.0247 C.ar    1  UNL1        0.1446
     34 C          68.0090   93.5311   15.8213 C.ar    1  UNL1        0.1446
     35 N          66.6890   93.3640   15.1287 N.ar    1  UNL1       -0.1447
@<TRIPOS>BOND
     1    20    21    1
     2    21     9    1
     3     9    10   ar
     4    10    11   ar
     5    11     1    1
     6     1     2    2
     7     1     3   am
     8     3     4    1
     9     4     5    1
    10     5     6    1
    11     6     7    1
    12     7     8    1
    13     8    24    1
    14    24    25    1
    15    25    26   ar
    16    26    27   ar
    17    27    28   ar
    18    28    29   ar
    19    29    31    1
    20    31    32   ar
    21    32    33   ar
    22    33    34   ar
    23    34    35   ar
    24    29    30   ar
    25    11    12   ar
    26    12    15    1
    27    15    16   ar
    28    16    17   ar
    29    17    18   ar
    30    18    19   ar
    31    12    13   ar
    32    13    14   ar
    33    14    22    1
    34    22    23    1
    35    14     9   ar
    36     8     3    1
    37    30    25   ar
    38    19    15   ar
    39    35    31   ar
@<TRIPOS>MOLECULE
*****
 35 39 0 0 0
SMALL
GASTEIGER

@<TRIPOS>ATOM
      1 C          63.1865   87.2897   12.6973 C.2     1  UNL1        0.2507
      2 O          63.8201   87.7004   13.9934 O.2     1  UNL1       -0.2698
      3 N          62.5649   88.3234   11.8056 N.am    1  UNL1       -0.2723
      4 C          61.9313   87.9126   10.5095 C.3     1  UNL1        0.1257
      5 C          61.3097   88.9462    9.6178 C.3     1  UNL1        0.1637
      6 O          61.3216   90.3907   10.0222 O.3     1  UNL1       -0.3502
      7 C          61.9552   90.8014   11.3183 C.3     1  UNL1        0.1622
      8 C          62.5768   89.7678   12.2100 C.3     1  UNL1        0.1096
      9 C          63.2151   84.0281   10.4365 C.ar    1  UNL1        0.1726
     10 C          63.2271   85.4725   10.8409 C.ar    1  UNL1        0.0461
     11 C          63.1746   85.8453   12.2929 C.ar    1  UNL1        0.0761
     12 C          63.1101   84.7736   13.3405 C.ar    1  UNL1        0.1104
     13 C          63.0981   83.3292   12.9361 C.ar    1  UNL1        0.0611
     14 C          63.1507   82.9565   11.4841 C.ar    1  UNL1        0.1739
     15 N          63.0576   85.1464   14.7925 N.ar    1  UNL1       -0.1476
     16 N          64.2278   85.5389   15.6449 N.ar    1  UNL1       -0.1447
     17 C          63.7191   85.8273   17.0262 C.ar    1  UNL1        0.1446
     18 C          62.2344   85.6130   17.0275 C.ar    1  UNL1        0.1446
     19 N          61.8256   85.1923   15.6470 N.ar    1  UNL1       -0.1447
     20 C          62.9754   84.6859    7.9345 C.3     1  UNL1        0.2526
     21 O          63.2677   83.6553    8.9845 O.3     1  UNL1       -0.4684
     22 O          63.1387   81.5120   11.0797 O.3     1  UNL1       -0.4683
     23 C          62.7884   80.4548   12.0844 C.3     1  UNL1        0.2526
     24 C          63.2104   90.1785   13.5061 C.3     1  UNL1        0.0488
     25 C          64.5169   90.9154   13.5019 C.ar    1  UNL1       -0.0189
     26 C          65.4756   90.7489   14.6435 C.ar    1  UNL1       -0.0041
     27 C          66.7821   91.4858   14.6393 C.ar    1  UNL1        0.0013
     28 C          67.1299   92.3893   13.4935 C.ar    1  UNL1        0.0209
     29 C          66.1712   92.5558   12.3520 C.ar    1  UNL1        0.1026
     30 C          64.8647   91.8189   12.3562 C.ar    1  UNL1        0.0167
     31 N          66.5190   93.4593   11.2062 N.ar    1  UNL1       -0.1478
     32 N          65.7585   94.6817   10.7850 N.ar    1  UNL1       -0.1447
     33 C          66.4578   95.2769    9.5990 C.ar    1  UNL1        0.1446
     34 C          67.6505   94.4223    9.2872 C.ar    1  UNL1        0.1446
     35 N          67.6883   93.2990   10.2805 N.ar    1  UNL1       -0.1447
@<TRIPOS>BOND
     1    20    21    1
     2    21     9    1
     3     9    10   ar
     4    10    11   ar
     5    11     1    1
     6     1     2    2
     7     1     3   am
     8     3     4    1
     9     4     5    1
    10     5     6    1
    11     6     7    1
    12     7     8    1
    13     8    24    1
    14    24    25    1
    15    25    26   ar
    16    26    27   ar
    17    27    28   ar
    18    28    29   ar
    19    29    31    1
    20    31    32   ar
    21    32    33   ar
    22    33    34   ar
    23    34    35   ar
    24    29    30   ar
    25    11    12   ar
    26    12    15    1
    27    15    16   ar
    28    16    17   ar
    29    17    18   ar
    30    18    19   ar
    31    12    13   ar
    32    13    14   ar
    33    14    22    1
    34    22    23    1
    35    14     9   ar
    36     8     3    1
    37    30    25   ar
    38    19    15   ar
    39    35    31   ar
@<TRIPOS>MOLECULE
*****
 35 39 0 0 0
SMALL
GASTEIGER

@<TRIPOS>ATOM
      1 C          63.4159   88.0358   13.2432 C.2     1  UNL1        0.2507
      2 O          63.6433   89.1382   12.2518 O.2     1  UNL1       -0.2698
      3 N          63.3572   88.3461   14.7096 N.am    1  UNL1       -0.2723
      4 C          63.1298   87.2436   15.7010 C.3     1  UNL1        0.1257
      5 C          63.0711   87.5539   17.1674 C.3     1  UNL1        0.1637
      6 O          63.2399   88.9667   17.6424 O.3     1  UNL1       -0.3502
      7 C          63.4673   90.0691   16.6510 C.3     1  UNL1        0.1622
      8 C          63.5260   89.7588   15.1846 C.3     1  UNL1        0.1096
      9 C          63.8198   84.0971   12.9722 C.ar    1  UNL1        0.1726
     10 C          63.9886   85.5098   13.4472 C.ar    1  UNL1        0.0461
     11 C          63.2471   86.6230   12.7682 C.ar    1  UNL1        0.0761
     12 C          62.3367   86.3234   11.6144 C.ar    1  UNL1        0.1104
     13 C          62.1679   84.9106   11.1394 C.ar    1  UNL1        0.0611
     14 C          62.9095   83.7975   11.8183 C.ar    1  UNL1        0.1739
     15 N          61.5951   87.4366   10.9354 N.ar    1  UNL1       -0.1476
     16 N          61.8992   87.9998    9.5788 N.ar    1  UNL1       -0.1447
     17 C          60.9113   89.0933    9.2989 C.ar    1  UNL1        0.1446
     18 C          59.9967   89.2059   10.4825 C.ar    1  UNL1        0.1446
     19 N          60.4193   88.1820   11.4939 N.ar    1  UNL1       -0.1447
     20 C          63.8139   81.7904   14.1677 C.3     1  UNL1        0.2526
     21 O          64.5614   82.9839   13.6511 O.3     1  UNL1       -0.4684
     22 O          62.7407   82.3847   11.3433 O.3     1  UNL1       -0.4683
     23 C          63.7404   81.7866   10.3984 C.3     1  UNL1        0.2526
     24 C          63.7534   90.8613   14.1932 C.3     1  UNL1        0.0488
     25 C          65.1406   91.3780   13.9511 C.ar    1  UNL1       -0.0189
     26 C          66.2130   91.1564   14.9763 C.ar    1  UNL1       -0.0041
     27 C          67.6002   91.6730   14.7343 C.ar    1  UNL1        0.0013
     28 C          67.9152   92.4112   13.4670 C.ar    1  UNL1        0.0209
     29 C          66.8428   92.6328   12.4418 C.ar    1  UNL1        0.1026
     30 C          65.4555   92.1162   12.6839 C.ar    1  UNL1        0.0167
     31 N          67.1577   93.3710   11.1746 N.ar    1  UNL1       -0.1478
     32 N          66.8249   94.8043   10.8832 N.ar    1  UNL1       -0.1447
     33 C          67.3222   95.1247    9.5048 C.ar    1  UNL1        0.1446
     34 C          67.9624   93.8894    8.9443 C.ar    1  UNL1        0.1446
     35 N          67.8607   92.8056    9.9763 N.ar    1  UNL1       -0.1447
@<TRIPOS>BOND
     1    20    21    1
     2    21     9    1
     3     9    10   ar
     4    10    11   ar
     5    11     1    1
     6     1     2    2
     7     1     3   am
     8     3     4    1
     9     4     5    1
    10     5     6    1
    11     6     7    1
    12     7     8    1
    13     8    24    1
    14    24    25    1
    15    25    26   ar
    16    26    27   ar
    17    27    28   ar
    18    28    29   ar
    19    29    31    1
    20    31    32   ar
    21    32    33   ar
    22    33    34   ar
    23    34    35   ar
    24    29    30   ar
    25    11    12   ar
    26    12    15    1
    27    15    16   ar
    28    16    17   ar
    29    17    18   ar
    30    18    19   ar
    31    12    13   ar
    32    13    14   ar
    33    14    22    1
    34    22    23    1
    35    14     9   ar
    36     8     3    1
    37    30    25   ar
    38    19    15   ar
    39    35    31   ar
@<TRIPOS>MOLECULE
*****
 35 39 0 0 0
SMALL
GASTEIGER

@<TRIPOS>ATOM
      1 C          62.8435   88.9600   12.0229 C.2     1  UNL1        0.2507
      2 O          62.9027   87.7020   12.8377 O.2     1  UNL1       -0.2698
      3 N          61.9022   89.0562   10.8591 N.am    1  UNL1       -0.2723
      4 C          61.8430   90.3143   10.0443 C.3     1  UNL1        0.1257
      5 C          60.9017   90.4105    8.8804 C.3     1  UNL1        0.1637
      6 O          60.0195   89.2485    8.5313 O.3     1  UNL1       -0.3502
      7 C          60.0787   87.9905    9.3460 C.3     1  UNL1        0.1622
      8 C          61.0201   87.8943   10.5099 C.3     1  UNL1        0.1096
      9 C          64.9820   92.2843   11.6683 C.ar    1  UNL1        0.1726
     10 C          64.0999   91.1224   11.3191 C.ar    1  UNL1        0.0461
     11 C          63.7257   90.1219   12.3721 C.ar    1  UNL1        0.0761
     12 C          64.2335   90.2832   13.7743 C.ar    1  UNL1        0.1104
     13 C          65.1156   91.4451   14.1234 C.ar    1  UNL1        0.0611
     14 C          65.4899   92.4456   13.0704 C.ar    1  UNL1        0.1739
     15 N          63.8592   89.2826   14.8273 N.ar    1  UNL1       -0.1476
     16 N          64.3594   87.8715   14.9202 N.ar    1  UNL1       -0.1447
     17 C          63.7283   87.2342   16.1225 C.ar    1  UNL1        0.1446
     18 C          62.8382   88.2515   16.7727 C.ar    1  UNL1        0.1446
     19 N          62.9191   89.5175   15.9722 N.ar    1  UNL1       -0.1447
     20 C          66.7294   93.2606   10.0119 C.3     1  UNL1        0.2526
     21 O          65.3563   93.2849   10.6152 O.3     1  UNL1       -0.4684
     22 O          66.3720   93.6075   13.4196 O.3     1  UNL1       -0.4683
     23 C          67.1801   93.5825   14.6830 C.3     1  UNL1        0.2526
     24 C          61.0793   86.6362   11.3246 C.3     1  UNL1        0.0488
     25 C          61.9627   85.5037   10.8925 C.ar    1  UNL1       -0.0189
     26 C          62.6632   85.5624    9.5674 C.ar    1  UNL1       -0.0041
     27 C          63.5466   84.4299    9.1352 C.ar    1  UNL1        0.0013
     28 C          63.7297   83.2385   10.0282 C.ar    1  UNL1        0.0209
     29 C          63.0292   83.1798   11.3532 C.ar    1  UNL1        0.1026
     30 C          62.1457   84.3124   11.7854 C.ar    1  UNL1        0.0167
     31 N          63.2121   81.9885   12.2462 N.ar    1  UNL1       -0.1478
     32 N          64.2119   81.8650   13.3576 N.ar    1  UNL1       -0.1447
     33 C          64.0451   80.5117   13.9828 C.ar    1  UNL1        0.1446
     34 C          62.9423   79.7989   13.2577 C.ar    1  UNL1        0.1446
     35 N          62.4275   80.7116   12.1844 N.ar    1  UNL1       -0.1447
@<TRIPOS>BOND
     1    20    21    1
     2    21     9    1
     3     9    10   ar
     4    10    11   ar
     5    11     1    1
     6     1     2    2
     7     1     3   am
     8     3     4    1
     9     4     5    1
    10     5     6    1
    11     6     7    1
    12     7     8    1
    13     8    24    1
    14    24    25    1
    15    25    26   ar
    16    26    27   ar
    17    27    28   ar
    18    28    29   ar
    19    29    31    1
    20    31    32   ar
    21    32    33   ar
    22    33    34   ar
    23    34    35   ar
    24    29    30   ar
    25    11    12   ar
    26    12    15    1
    27    15    16   ar
    28    16    17   ar
    29    17    18   ar
    30    18    19   ar
    31    12    13   ar
    32    13    14   ar
    33    14    22    1
    34    22    23    1
    35    14     9   ar
    36     8     3    1
    37    30    25   ar
    38    19    15   ar
    39    35    31   ar
@<TRIPOS>MOLECULE
*****
 35 39 0 0 0
SMALL
GASTEIGER

@<TRIPOS>ATOM
      1 C          62.4025   87.8995   11.1571 C.2     1  UNL1        0.2507
      2 O          63.5191   88.5347   10.3827 O.2     1  UNL1       -0.2698
      3 N          61.1487   88.6738   11.4371 N.am    1  UNL1       -0.2723
      4 C          60.0321   88.0386   12.2116 C.3     1  UNL1        0.1257
      5 C          58.7783   88.8129   12.4916 C.3     1  UNL1        0.1637
      6 O          58.6411   90.2224   11.9971 O.3     1  UNL1       -0.3502
      7 C          59.7576   90.8576   11.2227 C.3     1  UNL1        0.1622
      8 C          61.0114   90.0833   10.9427 C.3     1  UNL1        0.1096
      9 C          63.2651   84.8146   13.5000 C.ar    1  UNL1        0.1726
     10 C          63.1279   86.2240   13.0055 C.ar    1  UNL1        0.0461
     11 C          62.5397   86.4899   11.6516 C.ar    1  UNL1        0.0761
     12 C          62.0887   85.3464   10.7921 C.ar    1  UNL1        0.1104
     13 C          62.2259   83.9369   11.2865 C.ar    1  UNL1        0.0611
     14 C          62.8141   83.6710   12.6404 C.ar    1  UNL1        0.1739
     15 N          61.5004   85.6123    9.4380 N.ar    1  UNL1       -0.1476
     16 N          60.2023   86.3118    9.1626 N.ar    1  UNL1       -0.1447
     17 C          60.0066   86.3573    7.6762 C.ar    1  UNL1        0.1446
     18 C          61.1837   85.6860    7.0329 C.ar    1  UNL1        0.1446
     19 N          62.1069   85.2256    8.1218 N.ar    1  UNL1       -0.1447
     20 C          63.8488   85.6253   15.8983 C.3     1  UNL1        0.2526
     21 O          63.8534   84.5486   14.8540 O.3     1  UNL1       -0.4684
     22 O          62.9513   82.2614   13.1349 O.3     1  UNL1       -0.4683
     23 C          61.9810   81.7229   14.1441 C.3     1  UNL1        0.2526
     24 C          62.1280   90.7185   10.1682 C.3     1  UNL1        0.0488
     25 C          63.2785   91.3515   10.8933 C.ar    1  UNL1       -0.0189
     26 C          63.5265   91.0250   12.3362 C.ar    1  UNL1       -0.0041
     27 C          64.6769   91.6580   13.0613 C.ar    1  UNL1        0.0013
     28 C          65.5794   92.6175   12.3435 C.ar    1  UNL1        0.0209
     29 C          65.3313   92.9439   10.9007 C.ar    1  UNL1        0.1026
     30 C          64.1808   92.3109   10.1755 C.ar    1  UNL1        0.0167
     31 N          66.2337   93.9033   10.1829 N.ar    1  UNL1       -0.1478
     32 N          67.3788   93.5345    9.2870 N.ar    1  UNL1       -0.1447
     33 C          68.0022   94.8033    8.7854 C.ar    1  UNL1        0.1446
     34 C          67.2423   95.9563    9.3714 C.ar    1  UNL1        0.1446
     35 N          66.1493   95.4000   10.2351 N.ar    1  UNL1       -0.1447
@<TRIPOS>BOND
     1    20    21    1
     2    21     9    1
     3     9    10   ar
     4    10    11   ar
     5    11     1    1
     6     1     2    2
     7     1     3   am
     8     3     4    1
     9     4     5    1
    10     5     6    1
    11     6     7    1
    12     7     8    1
    13     8    24    1
    14    24    25    1
    15    25    26   ar
    16    26    27   ar
    17    27    28   ar
    18    28    29   ar
    19    29    31    1
    20    31    32   ar
    21    32    33   ar
    22    33    34   ar
    23    34    35   ar
    24    29    30   ar
    25    11    12   ar
    26    12    15    1
    27    15    16   ar
    28    16    17   ar
    29    17    18   ar
    30    18    19   ar
    31    12    13   ar
    32    13    14   ar
    33    14    22    1
    34    22    23    1
    35    14     9   ar
    36     8     3    1
    37    30    25   ar
    38    19    15   ar
    39    35    31   ar
@<TRIPOS>MOLECULE
*****
 35 39 0 0 0
SMALL
GASTEIGER

@<TRIPOS>ATOM
      1 C          62.4012   87.9246   11.0921 C.2     1  UNL1        0.2507
      2 O          63.4919   88.5506   10.2745 O.2     1  UNL1       -0.2698
      3 N          61.1458   88.6929   11.3816 N.am    1  UNL1       -0.2723
      4 C          60.0551   88.0669   12.1992 C.3     1  UNL1        0.1257
      5 C          58.7997   88.8352   12.4886 C.3     1  UNL1        0.1637
      6 O          58.6351   90.2295   11.9605 O.3     1  UNL1       -0.3502
      7 C          59.7259   90.8555   11.1430 C.3     1  UNL1        0.1622
      8 C          60.9812   90.0872   10.8535 C.3     1  UNL1        0.1096
      9 C          63.3113   84.9148   13.5134 C.ar    1  UNL1        0.1726
     10 C          63.1467   86.3091   12.9853 C.ar    1  UNL1        0.0461
     11 C          62.5658   86.5303   11.6202 C.ar    1  UNL1        0.0761
     12 C          62.1494   85.3573   10.7832 C.ar    1  UNL1        0.1104
     13 C          62.3140   83.9630   11.3112 C.ar    1  UNL1        0.0611
     14 C          62.8949   83.7418   12.6763 C.ar    1  UNL1        0.1739
     15 N          61.5685   85.5786    9.4180 N.ar    1  UNL1       -0.1476
     16 N          62.1967   85.1761    8.1167 N.ar    1  UNL1       -0.1447
     17 C          61.2739   85.5899    7.0089 C.ar    1  UNL1        0.1446
     18 C          60.0753   86.2482    7.6256 C.ar    1  UNL1        0.1446
     19 N          60.2575   86.2411    9.1145 N.ar    1  UNL1       -0.1447
     20 C          63.8630   85.7972   15.8940 C.3     1  UNL1        0.2526
     21 O          63.8922   84.6935   14.8785 O.3     1  UNL1       -0.4684
     22 O          63.0595   82.3474   13.2044 O.3     1  UNL1       -0.4683
     23 C          62.0491   81.7826   14.1584 C.3     1  UNL1        0.2526
     24 C          62.0720   90.7132   10.0359 C.3     1  UNL1        0.0488
     25 C          63.2604   91.3267   10.7150 C.ar    1  UNL1       -0.0189
     26 C          64.3555   91.9445    9.8972 C.ar    1  UNL1       -0.0041
     27 C          65.5439   92.5580   10.5763 C.ar    1  UNL1        0.0013
     28 C          65.6372   92.5538   12.0735 C.ar    1  UNL1        0.0209
     29 C          64.5420   91.9360   12.8914 C.ar    1  UNL1        0.1026
     30 C          63.3535   91.3225   12.2121 C.ar    1  UNL1        0.0167
     31 N          64.6352   91.9318   14.3884 N.ar    1  UNL1       -0.1478
     32 N          65.6919   92.6112   15.2080 N.ar    1  UNL1       -0.1447
     33 C          65.3979   92.3467   16.6549 C.ar    1  UNL1        0.1446
     34 C          64.1593   91.5038   16.7295 C.ar    1  UNL1        0.1446
     35 N          63.6880   91.2474   15.3288 N.ar    1  UNL1       -0.1447
@<TRIPOS>BOND
     1    20    21    1
     2    21     9    1
     3     9    10   ar
     4    10    11   ar
     5    11     1    1
     6     1     2    2
     7     1     3   am
     8     3     4    1
     9     4     5    1
    10     5     6    1
    11     6     7    1
    12     7     8    1
    13     8    24    1
    14    24    25    1
    15    25    26   ar
    16    26    27   ar
    17    27    28   ar
    18    28    29   ar
    19    29    31    1
    20    31    32   ar
    21    32    33   ar
    22    33    34   ar
    23    34    35   ar
    24    29    30   ar
    25    11    12   ar
    26    12    15    1
    27    15    16   ar
    28    16    17   ar
    29    17    18   ar
    30    18    19   ar
    31    12    13   ar
    32    13    14   ar
    33    14    22    1
    34    22    23    1
    35    14     9   ar
    36     8     3    1
    37    30    25   ar
    38    19    15   ar
    39    35    31   ar
