@<TRIPOS>MOLECULE
*****
 38 42 0 0 0
SMALL
GASTEIGER

@<TRIPOS>ATOM
      1 C          64.4707   89.3686   13.7040 C.2     1  UNL1        0.3203
      2 N          63.5990   89.0179   12.5347 N.2     1  UNL1       -0.0600
      3 C          63.1383   87.6037   12.3402 C.3     1  UNL1        0.2689
      4 C          63.5493   86.5402   13.3149 C.2     1  UNL1        0.1165
      5 C          64.4210   86.8908   14.4841 C.2     1  UNL1        0.1177
      6 C          64.8320   85.8273   15.4588 C.3     1  UNL1        0.0754
      7 N          64.8817   88.3051   14.6786 N.pl3   1  UNL1       -0.2028
      8 H          65.4539   88.5352   15.4461 H       1  UNL1        0.2982
      9 C          62.2666   87.2531   11.1710 C.ar    1  UNL1        0.0582
     10 C          62.7101   86.2069   10.1918 C.ar    1  UNL1        0.0033
     11 C          61.8385   85.8562    9.0225 C.ar    1  UNL1        0.0114
     12 C          60.5231   86.5518    8.8324 C.ar    1  UNL1        0.0599
     13 CL         59.6514   86.2011    7.6631 Cl      1  UNL1       -0.0822
     14 C          60.0795   87.5980    9.8116 C.ar    1  UNL1        0.0408
     15 C          60.9512   87.9486   10.9808 C.ar    1  UNL1        0.1413
     16 F          60.5076   88.9948   11.9599 F       1  UNL1       -0.2043
     17 C          65.6325   93.0778   12.9032 C.ar    1  UNL1        0.2252
     18 C          65.1718   91.6637   12.7086 C.ar    1  UNL1        0.0651
     19 C          64.9315   90.7827   13.8986 C.ar    1  UNL1        0.0882
     20 C          65.1519   91.3159   15.2832 C.ar    1  UNL1        0.0283
     21 C          65.6126   92.7300   15.4779 C.ar    1  UNL1        0.1023
     22 N          65.8529   93.6110   14.2878 N.ar    1  UNL1       -0.2101
     23 C          66.2050   93.3493   10.3836 C.3     1  UNL1        0.2542
     24 O          65.8728   93.9588   11.7132 O.3     1  UNL1       -0.4561
     25 C          63.0885   85.1260   13.1203 C.2     1  UNL1        0.2530
     26 O          61.6583   84.7600   13.3857 O.2     1  UNL1       -0.2699
     27 N          64.0580   84.0780   12.6603 N.am    1  UNL1       -0.2787
     28 H          64.9967   84.3183   12.4861 H       1  UNL1        0.1552
     29 C          63.5974   82.6638   12.4656 C.2     1  UNL1        0.0779
     30 C          63.6019   82.0555   11.0945 C.2     1  UNL1        0.0165
     31 C          63.1413   80.6413   10.8998 C.2     1  UNL1        0.0281
     32 C          63.0346   79.7799    9.6765 C.2     1  UNL1        0.1197
     33 N          62.5035   78.4416   10.0968 N.2     1  UNL1       -0.1508
     34 N          62.2819   78.4759   11.5800 N.2     1  UNL1       -0.1673
     35 C          62.6761   79.8354   12.0762 C.3     1  UNL1        0.1732
     36 C          62.6715   80.4437   13.4474 C.2     1  UNL1        0.0350
     37 C          63.1322   81.8579   13.6421 C.2     1  UNL1        0.1515
     38 F          63.1276   82.4661   15.0132 F       1  UNL1       -0.2031
@<TRIPOS>BOND
     1    23    24    1
     2    24    17    1
     3    17    18   ar
     4    18    19   ar
     5    19     1    1
     6     1     2    2
     7     2     3    1
     8     3     9    1
     9     9    10   ar
    10    10    11   ar
    11    11    12   ar
    12    12    13    1
    13    12    14   ar
    14    14    15   ar
    15    15    16    1
    16     3     4    1
    17     4    25    1
    18    25    26    2
    19    25    27   am
    20    27    29    1
    21    29    30    2
    22    30    31    1
    23    31    32    2
    24    32    33    1
    25    33    34    2
    26    34    35    1
    27    35    36    1
    28    36    37    2
    29    37    38    1
    30     4     5    2
    31     5     6    1
    32     5     7    1
    33    19    20   ar
    34    20    21   ar
    35    21    22   ar
    36    22    17   ar
    37     7     1    1
    38    15     9   ar
    39    37    29    1
    40    35    31    1
    41    27    28    1
    42     7     8    1
@<TRIPOS>MOLECULE
*****
 38 42 0 0 0
SMALL
GASTEIGER

@<TRIPOS>ATOM
      1 C          64.5235   89.4718   13.5102 C.2     1  UNL1        0.3203
      2 N          63.6391   89.0821   12.3630 N.2     1  UNL1       -0.0600
      3 C          63.1701   87.6640   12.2256 C.3     1  UNL1        0.2689
      4 C          63.5854   86.6355   13.2353 C.2     1  UNL1        0.1165
      5 C          64.4698   87.0250   14.3825 C.2     1  UNL1        0.1177
      6 C          64.8852   85.9965   15.3922 C.3     1  UNL1        0.0754
      7 N          64.9389   88.4433   14.5199 N.pl3   1  UNL1       -0.2028
      8 H          65.5193   88.6990   15.2729 H       1  UNL1        0.2982
      9 C          62.2857   87.2745   11.0784 C.ar    1  UNL1        0.0582
     10 C          62.7502   86.2480   10.0882 C.ar    1  UNL1        0.0033
     11 C          61.8658   85.8583    8.9409 C.ar    1  UNL1        0.0114
     12 C          60.5169   86.4953    8.7839 C.ar    1  UNL1        0.0599
     13 CL         59.6325   86.1057    7.6367 Cl      1  UNL1       -0.0822
     14 C          60.0523   87.5218    9.7742 C.ar    1  UNL1        0.0408
     15 C          60.9367   87.9114   10.9213 C.ar    1  UNL1        0.1413
     16 F          60.4721   88.9379   11.9115 F       1  UNL1       -0.2043
     17 C          66.1216   92.7600   15.0540 C.ar    1  UNL1        0.2252
     18 C          65.6526   91.3419   14.9166 C.ar    1  UNL1        0.0651
     19 C          64.9926   90.8899   13.6477 C.ar    1  UNL1        0.0882
     20 C          64.8016   91.8561   12.5163 C.ar    1  UNL1        0.0283
     21 C          65.2706   93.2742   12.6537 C.ar    1  UNL1        0.1023
     22 N          65.9306   93.7261   13.9226 N.ar    1  UNL1       -0.2101
     23 C          68.2736   93.3545   16.3827 C.3     1  UNL1        0.2542
     24 O          66.7817   93.2120   16.3229 O.3     1  UNL1       -0.4561
     25 C          63.1164   85.2174   13.0978 C.2     1  UNL1        0.2530
     26 O          61.7044   84.8567   13.4530 O.2     1  UNL1       -0.2699
     27 N          64.0593   84.1600   12.6051 N.am    1  UNL1       -0.2787
     28 H          64.9861   84.3968   12.3720 H       1  UNL1        0.1552
     29 C          63.5904   82.7419   12.4676 C.2     1  UNL1        0.0779
     30 C          63.5647   82.0879   11.1179 C.2     1  UNL1        0.0165
     31 C          63.0957   80.6698   10.9803 C.2     1  UNL1        0.0281
     32 C          62.9611   79.7683    9.7890 C.2     1  UNL1        0.1197
     33 N          62.4346   78.4468   10.2649 N.2     1  UNL1       -0.1508
     34 N          62.2438   78.5316   11.7503 N.2     1  UNL1       -0.1673
     35 C          62.6524   79.9055   12.1924 C.3     1  UNL1        0.1732
     36 C          62.6781   80.5594   13.5422 C.2     1  UNL1        0.0350
     37 C          63.1471   81.9775   13.6798 C.2     1  UNL1        0.1515
     38 F          63.1728   82.6314   15.0295 F       1  UNL1       -0.2031
@<TRIPOS>BOND
     1    23    24    1
     2    24    17    1
     3    17    18   ar
     4    18    19   ar
     5    19     1    1
     6     1     2    2
     7     2     3    1
     8     3     9    1
     9     9    10   ar
    10    10    11   ar
    11    11    12   ar
    12    12    13    1
    13    12    14   ar
    14    14    15   ar
    15    15    16    1
    16     3     4    1
    17     4    25    1
    18    25    26    2
    19    25    27   am
    20    27    29    1
    21    29    30    2
    22    30    31    1
    23    31    32    2
    24    32    33    1
    25    33    34    2
    26    34    35    1
    27    35    36    1
    28    36    37    2
    29    37    38    1
    30     4     5    2
    31     5     6    1
    32     5     7    1
    33    19    20   ar
    34    20    21   ar
    35    21    22   ar
    36    22    17   ar
    37     7     1    1
    38    15     9   ar
    39    37    29    1
    40    35    31    1
    41    27    28    1
    42     7     8    1
@<TRIPOS>MOLECULE
*****
 38 42 0 0 0
SMALL
GASTEIGER

@<TRIPOS>ATOM
      1 C          64.4360   90.5553   12.4815 C.2     1  UNL1        0.3203
      2 N          63.5232   90.0239   11.4164 N.2     1  UNL1       -0.0600
      3 C          62.9773   88.6309   11.5230 C.3     1  UNL1        0.2689
      4 C          63.3440   87.7692   12.6948 C.2     1  UNL1        0.1165
      5 C          64.2568   88.3005   13.7599 C.2     1  UNL1        0.1177
      6 C          64.6235   87.4388   14.9317 C.3     1  UNL1        0.0754
      7 N          64.8028   89.6936   13.6533 N.pl3   1  UNL1       -0.2028
      8 H          65.4019   90.0424   14.3523 H       1  UNL1        0.2982
      9 C          62.0645   88.0996   10.4579 C.ar    1  UNL1        0.0582
     10 C          62.4974   86.9417    9.6083 C.ar    1  UNL1        0.0033
     11 C          61.5847   86.4103    8.5431 C.ar    1  UNL1        0.0114
     12 C          60.2390   87.0370    8.3275 C.ar    1  UNL1        0.0599
     13 CL         59.3262   86.5057    7.2623 Cl      1  UNL1       -0.0822
     14 C          59.8060   88.1950    9.1771 C.ar    1  UNL1        0.0408
     15 C          60.7187   88.7263   10.2422 C.ar    1  UNL1        0.1413
     16 F          60.2858   89.8842   11.0918 F       1  UNL1       -0.2043
     17 C          66.2870   93.9392   13.4157 C.ar    1  UNL1        0.2252
     18 C          65.7410   92.5462   13.5224 C.ar    1  UNL1        0.0651
     19 C          64.9821   91.9483   12.3750 C.ar    1  UNL1        0.0882
     20 C          64.7691   92.7434   11.1210 C.ar    1  UNL1        0.0283
     21 C          65.3151   94.1364   11.0144 C.ar    1  UNL1        0.1023
     22 N          66.0741   94.7343   12.1618 N.ar    1  UNL1       -0.2101
     23 C          67.9591   93.6785   15.3870 C.3     1  UNL1        0.2542
     24 O          67.0460   94.5371   14.5631 O.3     1  UNL1       -0.4561
     25 C          62.7980   86.3762   12.8013 C.2     1  UNL1        0.2530
     26 O          61.3503   86.1138   12.5093 O.2     1  UNL1       -0.2699
     27 N          63.6996   85.2457   13.1999 N.am    1  UNL1       -0.2787
     28 H          64.6498   85.4180   13.3916 H       1  UNL1        0.1552
     29 C          63.1537   83.8527   13.3065 C.2     1  UNL1        0.0779
     30 C          63.4594   82.8437   12.2395 C.2     1  UNL1        0.0165
     31 C          62.9135   81.4506   12.3460 C.2     1  UNL1        0.0281
     32 C          63.0447   80.2504   11.4560 C.2     1  UNL1        0.1197
     33 N          62.2742   79.1245   12.0794 N.2     1  UNL1       -0.1508
     34 N          61.6668   79.6289   13.3548 N.2     1  UNL1       -0.1673
     35 C          62.0618   81.0665   13.5195 C.3     1  UNL1        0.1732
     36 C          61.7562   82.0756   14.5865 C.2     1  UNL1        0.0350
     37 C          62.3021   83.4686   14.4800 C.2     1  UNL1        0.1515
     38 F          61.9963   84.4776   15.5470 F       1  UNL1       -0.2031
@<TRIPOS>BOND
     1    23    24    1
     2    24    17    1
     3    17    18   ar
     4    18    19   ar
     5    19     1    1
     6     1     2    2
     7     2     3    1
     8     3     9    1
     9     9    10   ar
    10    10    11   ar
    11    11    12   ar
    12    12    13    1
    13    12    14   ar
    14    14    15   ar
    15    15    16    1
    16     3     4    1
    17     4    25    1
    18    25    26    2
    19    25    27   am
    20    27    29    1
    21    29    30    2
    22    30    31    1
    23    31    32    2
    24    32    33    1
    25    33    34    2
    26    34    35    1
    27    35    36    1
    28    36    37    2
    29    37    38    1
    30     4     5    2
    31     5     6    1
    32     5     7    1
    33    19    20   ar
    34    20    21   ar
    35    21    22   ar
    36    22    17   ar
    37     7     1    1
    38    15     9   ar
    39    37    29    1
    40    35    31    1
    41    27    28    1
    42     7     8    1
@<TRIPOS>MOLECULE
*****
 38 42 0 0 0
SMALL
GASTEIGER

@<TRIPOS>ATOM
      1 C          64.6003   89.7019   13.7720 C.2     1  UNL1        0.3203
      2 N          63.6799   89.4268   12.6199 N.2     1  UNL1       -0.0600
      3 C          63.2157   88.0266   12.3486 C.3     1  UNL1        0.2689
      4 C          63.6718   86.9012   13.2293 C.2     1  UNL1        0.1165
      5 C          64.5922   87.1762   14.3813 C.2     1  UNL1        0.1177
      6 C          65.0484   86.0509   15.2620 C.3     1  UNL1        0.0754
      7 N          65.0564   88.5766   14.6527 N.pl3   1  UNL1       -0.2028
      8 H          65.6605   88.7571   15.4088 H       1  UNL1        0.2982
      9 C          62.2953   87.7516   11.1965 C.ar    1  UNL1        0.0582
     10 C          62.6834   86.7509   10.1487 C.ar    1  UNL1        0.0033
     11 C          61.7631   86.4758    8.9966 C.ar    1  UNL1        0.0114
     12 C          60.4545   87.2016    8.8923 C.ar    1  UNL1        0.0599
     13 CL         59.5341   86.9267    7.7402 Cl      1  UNL1       -0.0822
     14 C          60.0663   88.2024    9.9401 C.ar    1  UNL1        0.0408
     15 C          60.9866   88.4774   11.0921 C.ar    1  UNL1        0.1413
     16 F          60.5985   89.4781   12.1399 F       1  UNL1       -0.2043
     17 C          65.8466   93.4218   13.1731 C.ar    1  UNL1        0.2252
     18 C          65.3824   92.0215   12.9016 C.ar    1  UNL1        0.0651
     19 C          65.0645   91.1022   14.0434 C.ar    1  UNL1        0.0882
     20 C          65.2109   91.5831   15.4567 C.ar    1  UNL1        0.0283
     21 C          65.6752   92.9833   15.7282 C.ar    1  UNL1        0.1023
     22 N          65.9930   93.9027   14.5864 N.ar    1  UNL1       -0.2101
     23 C          65.7039   94.0020   10.6447 C.3     1  UNL1        0.2542
     24 O          66.1645   94.3411   12.0313 O.3     1  UNL1       -0.4561
     25 C          63.2076   85.5010   12.9578 C.2     1  UNL1        0.2530
     26 O          61.7742   85.1271   13.1937 O.2     1  UNL1       -0.2699
     27 N          64.1767   84.4746   12.4506 N.am    1  UNL1       -0.2787
     28 H          65.1175   84.7200   12.2958 H       1  UNL1        0.1552
     29 C          63.7126   83.0743   12.1791 C.2     1  UNL1        0.0779
     30 C          63.2666   82.1990   13.3127 C.2     1  UNL1        0.0165
     31 C          62.8024   80.7987   13.0414 C.2     1  UNL1        0.0281
     32 C          62.3083   79.7115   13.9489 C.2     1  UNL1        0.1197
     33 N          61.9847   78.5144   13.1049 N.2     1  UNL1       -0.1508
     34 N          62.2788   78.8619   11.6757 N.2     1  UNL1       -0.1673
     35 C          62.7842   80.2736   11.6364 C.3     1  UNL1        0.1732
     36 C          63.2302   81.1489   10.5028 C.2     1  UNL1        0.0350
     37 C          63.6944   82.5492   10.7742 C.2     1  UNL1        0.1515
     38 F          64.1403   83.4245    9.6405 F       1  UNL1       -0.2031
@<TRIPOS>BOND
     1    23    24    1
     2    24    17    1
     3    17    18   ar
     4    18    19   ar
     5    19     1    1
     6     1     2    2
     7     2     3    1
     8     3     9    1
     9     9    10   ar
    10    10    11   ar
    11    11    12   ar
    12    12    13    1
    13    12    14   ar
    14    14    15   ar
    15    15    16    1
    16     3     4    1
    17     4    25    1
    18    25    26    2
    19    25    27   am
    20    27    29    1
    21    29    30    2
    22    30    31    1
    23    31    32    2
    24    32    33    1
    25    33    34    2
    26    34    35    1
    27    35    36    1
    28    36    37    2
    29    37    38    1
    30     4     5    2
    31     5     6    1
    32     5     7    1
    33    19    20   ar
    34    20    21   ar
    35    21    22   ar
    36    22    17   ar
    37     7     1    1
    38    15     9   ar
    39    37    29    1
    40    35    31    1
    41    27    28    1
    42     7     8    1
@<TRIPOS>MOLECULE
*****
 38 42 0 0 0
SMALL
GASTEIGER

@<TRIPOS>ATOM
      1 C          63.7940   87.8363   14.4249 C.2     1  UNL1        0.3203
      2 N          64.7519   88.8534   14.9709 N.2     1  UNL1       -0.0600
      3 C          65.0514   90.0975   14.1884 C.3     1  UNL1        0.2689
      4 C          64.3932   90.3246   12.8598 C.2     1  UNL1        0.1165
      5 C          63.4353   89.3076   12.3137 C.2     1  UNL1        0.1177
      6 C          62.7771   89.5347   10.9851 C.3     1  UNL1        0.0754
      7 N          63.1358   88.0634   13.0963 N.pl3   1  UNL1       -0.2028
      8 H          62.5071   87.3959   12.7380 H       1  UNL1        0.2982
      9 C          66.0092   91.1145   14.7344 C.ar    1  UNL1        0.0582
     10 C          67.4073   91.1929   14.1965 C.ar    1  UNL1        0.0033
     11 C          68.3652   92.2099   14.7425 C.ar    1  UNL1        0.0114
     12 C          67.9250   93.1486   15.8265 C.ar    1  UNL1        0.0599
     13 CL         68.8829   94.1656   16.3726 Cl      1  UNL1       -0.0822
     14 C          66.5269   93.0702   16.3645 C.ar    1  UNL1        0.0408
     15 C          65.5691   92.0533   15.8185 C.ar    1  UNL1        0.1413
     16 F          64.1711   91.9749   16.3565 F       1  UNL1       -0.2043
     17 C          63.3431   84.0022   15.3446 C.ar    1  UNL1        0.2252
     18 C          63.6427   85.2462   14.5620 C.ar    1  UNL1        0.0651
     19 C          63.4944   86.5921   15.2074 C.ar    1  UNL1        0.0882
     20 C          63.0465   86.6939   16.6353 C.ar    1  UNL1        0.0283
     21 C          62.7469   85.4498   17.4179 C.ar    1  UNL1        0.1023
     22 N          62.8952   84.1039   16.7725 N.ar    1  UNL1       -0.2101
     23 C          62.3386   82.0501   13.9552 C.3     1  UNL1        0.2542
     24 O          63.4914   82.6563   14.6991 O.3     1  UNL1       -0.4561
     25 C          64.6928   91.5687   12.0773 C.2     1  UNL1        0.2530
     26 O          63.5843   92.3034   11.3833 O.2     1  UNL1       -0.2699
     27 N          66.1008   92.0782   11.9888 N.am    1  UNL1       -0.2787
     28 H          66.8283   91.5960   12.4443 H       1  UNL1        0.1552
     29 C          66.4005   93.3223   11.2063 C.2     1  UNL1        0.0779
     30 C          66.7232   93.2293    9.7443 C.2     1  UNL1        0.0165
     31 C          67.0229   94.4734    8.9618 C.2     1  UNL1        0.0281
     32 C          67.3717   94.6923    7.5194 C.2     1  UNL1        0.1197
     33 N          67.5644   96.1646    7.3074 N.2     1  UNL1       -0.1508
     34 N          67.3346   96.8558    8.6187 N.2     1  UNL1       -0.1673
     35 C          67.0000   95.8105    9.6412 C.3     1  UNL1        0.1732
     36 C          66.6773   95.9035   11.1031 C.2     1  UNL1        0.0350
     37 C          66.3776   94.6594   11.8857 C.2     1  UNL1        0.1515
     38 F          66.0549   94.7525   13.3476 F       1  UNL1       -0.2031
@<TRIPOS>BOND
     1    23    24    1
     2    24    17    1
     3    17    18   ar
     4    18    19   ar
     5    19     1    1
     6     1     2    2
     7     2     3    1
     8     3     9    1
     9     9    10   ar
    10    10    11   ar
    11    11    12   ar
    12    12    13    1
    13    12    14   ar
    14    14    15   ar
    15    15    16    1
    16     3     4    1
    17     4    25    1
    18    25    26    2
    19    25    27   am
    20    27    29    1
    21    29    30    2
    22    30    31    1
    23    31    32    2
    24    32    33    1
    25    33    34    2
    26    34    35    1
    27    35    36    1
    28    36    37    2
    29    37    38    1
    30     4     5    2
    31     5     6    1
    32     5     7    1
    33    19    20   ar
    34    20    21   ar
    35    21    22   ar
    36    22    17   ar
    37     7     1    1
    38    15     9   ar
    39    37    29    1
    40    35    31    1
    41    27    28    1
    42     7     8    1
@<TRIPOS>MOLECULE
*****
 38 42 0 0 0
SMALL
GASTEIGER

@<TRIPOS>ATOM
      1 C          64.4834   90.6141   12.6297 C.2     1  UNL1        0.3203
      2 N          63.5417   90.1244   11.5697 N.2     1  UNL1       -0.0600
      3 C          62.9850   88.7336   11.6455 C.3     1  UNL1        0.2689
      4 C          63.3700   87.8324   12.7811 C.2     1  UNL1        0.1165
      5 C          64.3117   88.3220   13.8410 C.2     1  UNL1        0.1177
      6 C          64.6967   87.4208   14.9767 C.3     1  UNL1        0.0754
      7 N          64.8684   89.7129   13.7653 N.pl3   1  UNL1       -0.2028
      8 H          65.4864   90.0343   14.4610 H       1  UNL1        0.2982
      9 C          62.0434   88.2440   10.5855 C.ar    1  UNL1        0.0582
     10 C          60.8198   89.0411   10.2430 C.ar    1  UNL1        0.0033
     11 C          59.8780   88.5516    9.1830 C.ar    1  UNL1        0.0114
     12 C          60.1599   87.2648    8.4656 C.ar    1  UNL1        0.0599
     13 CL         59.2182   86.7752    7.4056 Cl      1  UNL1       -0.0822
     14 C          61.3836   86.4676    8.8081 C.ar    1  UNL1        0.0408
     15 C          62.3252   86.9572    9.8680 C.ar    1  UNL1        0.1413
     16 F          63.5488   86.1600   10.2105 F       1  UNL1       -0.2043
     17 C          65.4588   94.1910   11.2142 C.ar    1  UNL1        0.2252
     18 C          64.9021   92.8002   11.2897 C.ar    1  UNL1        0.0651
     19 C          65.0401   92.0049   12.5540 C.ar    1  UNL1        0.0882
     20 C          65.7348   92.6003   13.7426 C.ar    1  UNL1        0.0283
     21 C          66.2915   93.9911   13.6671 C.ar    1  UNL1        0.1023
     22 N          66.1535   94.7865   12.4028 N.ar    1  UNL1       -0.2101
     23 C          65.3020   96.4852   10.0050 C.3     1  UNL1        0.2542
     24 O          65.3208   94.9864    9.9499 O.3     1  UNL1       -0.4561
     25 C          62.8133   86.4416   12.8567 C.2     1  UNL1        0.2530
     26 O          61.3764   86.1889   12.5081 O.2     1  UNL1       -0.2699
     27 N          63.6935   85.3035   13.2810 N.am    1  UNL1       -0.2787
     28 H          64.6365   85.4694   13.5099 H       1  UNL1        0.1552
     29 C          63.1369   83.9127   13.3567 C.2     1  UNL1        0.0779
     30 C          63.4663   82.9138   12.2873 C.2     1  UNL1        0.0165
     31 C          62.9097   81.5229   12.3629 C.2     1  UNL1        0.0281
     32 C          63.0588   80.3319   11.4633 C.2     1  UNL1        0.1197
     33 N          62.2649   79.2038   12.0524 N.2     1  UNL1       -0.1508
     34 N          61.6252   79.6976   13.3161 N.2     1  UNL1       -0.1673
     35 C          62.0237   81.1309   13.5079 C.3     1  UNL1        0.1732
     36 C          61.6943   82.1298   14.5774 C.2     1  UNL1        0.0350
     37 C          62.2508   83.5207   14.5018 C.2     1  UNL1        0.1515
     38 F          61.9213   84.5195   15.5713 F       1  UNL1       -0.2031
@<TRIPOS>BOND
     1    23    24    1
     2    24    17    1
     3    17    18   ar
     4    18    19   ar
     5    19     1    1
     6     1     2    2
     7     2     3    1
     8     3     9    1
     9     9    10   ar
    10    10    11   ar
    11    11    12   ar
    12    12    13    1
    13    12    14   ar
    14    14    15   ar
    15    15    16    1
    16     3     4    1
    17     4    25    1
    18    25    26    2
    19    25    27   am
    20    27    29    1
    21    29    30    2
    22    30    31    1
    23    31    32    2
    24    32    33    1
    25    33    34    2
    26    34    35    1
    27    35    36    1
    28    36    37    2
    29    37    38    1
    30     4     5    2
    31     5     6    1
    32     5     7    1
    33    19    20   ar
    34    20    21   ar
    35    21    22   ar
    36    22    17   ar
    37     7     1    1
    38    15     9   ar
    39    37    29    1
    40    35    31    1
    41    27    28    1
    42     7     8    1
