@<TRIPOS>MOLECULE
*****
 39 45 0 0 0
SMALL
GASTEIGER

@<TRIPOS>ATOM
      1 C          60.5720   86.1717    8.3440 C.ar    1  UNL1        0.0146
      2 C          60.9274   85.8648    6.9195 C.ar    1  UNL1       -0.0011
      3 C          62.0779   84.9524    6.6134 C.ar    1  UNL1        0.0014
      4 C          62.8731   84.3470    7.7319 C.ar    1  UNL1        0.0206
      5 C          62.5177   84.6539    9.1565 C.ar    1  UNL1        0.0989
      6 C          61.3672   85.5663    9.4626 C.ar    1  UNL1        0.1511
      7 O          61.0117   85.8732   10.8872 O.3     1  UNL1       -0.4678
      8 C          61.8069   85.2678   12.0057 C.3     1  UNL1        0.2510
      9 C          62.9576   84.3554   11.6996 C.ar    1  UNL1        0.1087
     10 C          63.9161   83.6169   12.5860 C.ar    1  UNL1        0.1518
     11 N          64.8640   82.8534   11.7092 N.ar    1  UNL1       -0.2192
     12 C          64.4912   83.1202   10.2809 C.ar    1  UNL1        0.1828
     13 N          63.3129   84.0485   10.2750 N.ar    1  UNL1       -0.2851
     14 C          63.9252   83.6380   14.0858 C.2     1  UNL1        0.2681
     15 O          63.9004   82.3500   14.8542 O.2     1  UNL1       -0.2682
     16 N          63.9592   84.9472   14.8172 N.am    1  UNL1       -0.2748
     17 C          63.9718   85.1249   16.3066 C.3     1  UNL1        0.0938
     18 C          64.0069   86.5961   16.5975 C.3     1  UNL1        0.0233
     19 C          64.0159   87.3274   15.2880 C.3     1  UNL1        0.0233
     20 C          63.9865   86.3083   14.1877 C.3     1  UNL1        0.0938
     21 C          59.4213   87.0841    8.6501 C.3     1  UNL1        0.0468
     22 C          59.6338   88.5682    8.7005 C.3     1  UNL1        0.0770
     23 N          62.7080   90.3077   11.4885 N.pl3   1  UNL1       -0.3046
     24 C          63.1430   89.4911   10.3079 C.3     1  UNL1        0.1081
     25 C          62.1183   88.9113    9.3785 C.3     1  UNL1        0.0938
     26 N          60.6585   89.1480    9.6298 N.3     1  UNL1       -0.2695
     27 C          60.2236   89.9646   10.8105 C.3     1  UNL1        0.0938
     28 C          61.2483   90.5444   11.7398 C.3     1  UNL1        0.1081
     29 C          67.2548   95.3810   10.5728 C.3     1  UNL1        0.0521
     30 C          66.3743   94.2576   11.0340 C.ar    1  UNL1        0.0593
     31 C          65.3496   93.6778   10.1047 C.ar    1  UNL1        0.0148
     32 C          64.4691   92.5544   10.5660 C.ar    1  UNL1        0.0039
     33 C          64.6133   92.0109   11.9566 C.ar    1  UNL1        0.0310
     34 C          63.7328   90.8875   12.4178 C.ar    1  UNL1        0.0493
     35 C          63.8770   90.3440   13.8085 C.ar    1  UNL1        0.0146
     36 C          64.9018   90.9238   14.7378 C.ar    1  UNL1        0.0028
     37 C          65.7823   92.0472   14.2765 C.ar    1  UNL1        0.0192
     38 C          65.6381   92.5907   12.8860 C.ar    1  UNL1        0.0821
     39 N          66.5186   93.7141   12.4247 N.ar    1  UNL1       -0.2496
@<TRIPOS>BOND
     1    29    30    1
     2    30    31   ar
     3    31    32   ar
     4    32    33   ar
     5    33    34   ar
     6    34    23    1
     7    23    24    1
     8    24    25    1
     9    25    26    1
    10    26    22    1
    11    22    21    1
    12    21     1    1
    13     1     2   ar
    14     2     3   ar
    15     3     4   ar
    16     4     5   ar
    17     5     6   ar
    18     6     7    1
    19     7     8    1
    20     8     9    1
    21     9    10   ar
    22    10    14    1
    23    14    15    2
    24    14    16   am
    25    16    17    1
    26    17    18    1
    27    18    19    1
    28    19    20    1
    29    10    11   ar
    30    11    12   ar
    31    12    13   ar
    32    26    27    1
    33    27    28    1
    34    34    35   ar
    35    35    36   ar
    36    36    37   ar
    37    37    38   ar
    38    38    39   ar
    39    39    30   ar
    40    38    33   ar
    41    28    23    1
    42     6     1   ar
    43    13     9   ar
    44    13     5    1
    45    20    16    1
@<TRIPOS>MOLECULE
*****
 39 45 0 0 0
SMALL
GASTEIGER

@<TRIPOS>ATOM
      1 C          63.1124   84.1889   14.9920 C.ar    1  UNL1        0.0146
      2 C          64.1603   83.1546   15.2785 C.ar    1  UNL1       -0.0011
      3 C          64.8886   82.4915   14.1472 C.ar    1  UNL1        0.0014
      4 C          64.5690   82.8627   12.7295 C.ar    1  UNL1        0.0206
      5 C          63.5211   83.8970   12.4430 C.ar    1  UNL1        0.0989
      6 C          62.7928   84.5601   13.5743 C.ar    1  UNL1        0.1511
      7 O          61.7448   85.5944   13.2878 O.3     1  UNL1       -0.4678
      8 C          61.4252   85.9657   11.8701 C.3     1  UNL1        0.2510
      9 C          62.1536   85.3025   10.7387 C.ar    1  UNL1        0.1087
     10 C          62.0541   85.4619    9.2506 C.ar    1  UNL1        0.1518
     11 N          63.0406   84.5261    8.6173 N.ar    1  UNL1       -0.2192
     12 C          63.7497   83.7883    9.7141 C.ar    1  UNL1        0.1828
     13 N          63.2015   84.2682   11.0252 N.ar    1  UNL1       -0.2851
     14 C          61.1304   86.3935    8.5234 C.2     1  UNL1        0.2681
     15 O          60.2995   85.8865    7.3821 O.2     1  UNL1       -0.2682
     16 N          61.0377   87.8323    8.9375 N.am    1  UNL1       -0.2748
     17 C          60.1635   88.8762    8.3081 C.3     1  UNL1        0.0938
     18 C          60.3883   90.1688    9.0353 C.3     1  UNL1        0.0233
     19 C          61.4013   89.9236   10.1140 C.3     1  UNL1        0.0233
     20 C          61.8026   88.4796   10.0536 C.3     1  UNL1        0.0938
     21 C          62.3840   84.8520   16.1234 C.3     1  UNL1        0.0468
     22 C          63.0077   86.0139   16.8382 C.3     1  UNL1        0.0770
     23 N          64.3303   89.6360   14.5184 N.pl3   1  UNL1       -0.3046
     24 C          63.4854   89.7996   15.7470 C.3     1  UNL1        0.1081
     25 C          63.0445   88.5922   16.5203 C.3     1  UNL1        0.0938
     26 N          63.4486   87.2213   16.0650 N.3     1  UNL1       -0.2695
     27 C          64.2935   87.0577   14.8364 C.3     1  UNL1        0.0938
     28 C          64.7344   88.2650   14.0631 C.3     1  UNL1        0.1081
     29 C          69.0813   94.3980   15.9332 C.3     1  UNL1        0.0521
     30 C          68.0038   93.5093   15.3862 C.ar    1  UNL1        0.0593
     31 C          67.5629   92.3020   16.1594 C.ar    1  UNL1        0.0148
     32 C          66.4854   91.4133   15.6124 C.ar    1  UNL1        0.0039
     33 C          65.8487   91.7320   14.2922 C.ar    1  UNL1        0.0310
     34 C          64.7712   90.8433   13.7452 C.ar    1  UNL1        0.0493
     35 C          64.1345   91.1620   12.4249 C.ar    1  UNL1        0.0146
     36 C          64.5754   92.3694   11.6517 C.ar    1  UNL1        0.0028
     37 C          65.6529   93.2580   12.1987 C.ar    1  UNL1        0.0192
     38 C          66.2896   92.9394   13.5189 C.ar    1  UNL1        0.0821
     39 N          67.3671   93.8280   14.0659 N.ar    1  UNL1       -0.2496
@<TRIPOS>BOND
     1    29    30    1
     2    30    31   ar
     3    31    32   ar
     4    32    33   ar
     5    33    34   ar
     6    34    23    1
     7    23    24    1
     8    24    25    1
     9    25    26    1
    10    26    22    1
    11    22    21    1
    12    21     1    1
    13     1     2   ar
    14     2     3   ar
    15     3     4   ar
    16     4     5   ar
    17     5     6   ar
    18     6     7    1
    19     7     8    1
    20     8     9    1
    21     9    10   ar
    22    10    14    1
    23    14    15    2
    24    14    16   am
    25    16    17    1
    26    17    18    1
    27    18    19    1
    28    19    20    1
    29    10    11   ar
    30    11    12   ar
    31    12    13   ar
    32    26    27    1
    33    27    28    1
    34    34    35   ar
    35    35    36   ar
    36    36    37   ar
    37    37    38   ar
    38    38    39   ar
    39    39    30   ar
    40    38    33   ar
    41    28    23    1
    42     6     1   ar
    43    13     9   ar
    44    13     5    1
    45    20    16    1
@<TRIPOS>MOLECULE
*****
 39 45 0 0 0
SMALL
GASTEIGER

@<TRIPOS>ATOM
      1 C          60.1102   88.9384    8.3104 C.ar    1  UNL1        0.0146
      2 C          59.8614   87.5477    7.8063 C.ar    1  UNL1       -0.0011
      3 C          60.4662   86.3732    8.5166 C.ar    1  UNL1        0.0014
      4 C          61.3196   86.5892    9.7311 C.ar    1  UNL1        0.0206
      5 C          61.5683   87.9798   10.2353 C.ar    1  UNL1        0.0989
      6 C          60.9636   89.1544    9.5249 C.ar    1  UNL1        0.1511
      7 O          61.2123   90.5452   10.0291 O.3     1  UNL1       -0.4678
      8 C          62.0658   90.7612   11.2435 C.3     1  UNL1        0.2510
      9 C          62.6705   89.5865   11.9539 C.ar    1  UNL1        0.1087
     10 C          63.5480   89.4900   13.1665 C.ar    1  UNL1        0.1518
     11 N          63.8416   88.0396   13.4119 N.ar    1  UNL1       -0.2192
     12 C          63.1456   87.2398   12.3509 C.ar    1  UNL1        0.1828
     13 N          62.4218   88.1959   11.4497 N.ar    1  UNL1       -0.2851
     14 C          64.0447   90.6416   13.9894 C.2     1  UNL1        0.2681
     15 O          63.5817   90.8056   15.4067 O.2     1  UNL1       -0.2682
     16 N          65.0045   91.6293   13.3949 N.am    1  UNL1       -0.2748
     17 C          65.5843   92.8242   14.0919 C.3     1  UNL1        0.0938
     18 C          66.4912   93.5289   13.1268 C.3     1  UNL1        0.0233
     19 C          66.4717   92.7693   11.8336 C.3     1  UNL1        0.0233
     20 C          65.5529   91.5953   11.9993 C.3     1  UNL1        0.0938
     21 C          59.5055   90.1131    7.6001 C.3     1  UNL1        0.0468
     22 C          59.0755   89.9839    6.1689 C.3     1  UNL1        0.0770
     23 N          60.9727   92.5643    3.0079 N.pl3   1  UNL1       -0.3046
     24 C          61.7891   91.5250    3.7171 C.3     1  UNL1        0.1081
     25 C          61.1568   90.6648    4.7708 C.3     1  UNL1        0.0938
     26 N          59.7079   90.8440    5.1152 N.3     1  UNL1       -0.2695
     27 C          58.8914   91.8835    4.4059 C.3     1  UNL1        0.0938
     28 C          59.5238   92.7436    3.3523 C.3     1  UNL1        0.1081
     29 C          59.3131   93.5507   -3.5893 C.3     1  UNL1        0.0521
     30 C          59.8861   93.5191   -2.2034 C.ar    1  UNL1        0.0593
     31 C          59.2537   92.6590   -1.1498 C.ar    1  UNL1        0.0148
     32 C          59.8267   92.6275    0.2361 C.ar    1  UNL1        0.0039
     33 C          61.0321   93.4560    0.5683 C.ar    1  UNL1        0.0310
     34 C          61.6051   93.4245    1.9542 C.ar    1  UNL1        0.0493
     35 C          62.8105   94.2531    2.2864 C.ar    1  UNL1        0.0146
     36 C          63.4429   95.1132    1.2328 C.ar    1  UNL1        0.0028
     37 C          62.8699   95.1448   -0.1531 C.ar    1  UNL1        0.0192
     38 C          61.6645   94.3162   -0.4853 C.ar    1  UNL1        0.0821
     39 N          61.0915   94.3478   -1.8712 N.ar    1  UNL1       -0.2496
@<TRIPOS>BOND
     1    29    30    1
     2    30    31   ar
     3    31    32   ar
     4    32    33   ar
     5    33    34   ar
     6    34    23    1
     7    23    24    1
     8    24    25    1
     9    25    26    1
    10    26    22    1
    11    22    21    1
    12    21     1    1
    13     1     2   ar
    14     2     3   ar
    15     3     4   ar
    16     4     5   ar
    17     5     6   ar
    18     6     7    1
    19     7     8    1
    20     8     9    1
    21     9    10   ar
    22    10    14    1
    23    14    15    2
    24    14    16   am
    25    16    17    1
    26    17    18    1
    27    18    19    1
    28    19    20    1
    29    10    11   ar
    30    11    12   ar
    31    12    13   ar
    32    26    27    1
    33    27    28    1
    34    34    35   ar
    35    35    36   ar
    36    36    37   ar
    37    37    38   ar
    38    38    39   ar
    39    39    30   ar
    40    38    33   ar
    41    28    23    1
    42     6     1   ar
    43    13     9   ar
    44    13     5    1
    45    20    16    1
@<TRIPOS>MOLECULE
*****
 39 45 0 0 0
SMALL
GASTEIGER

@<TRIPOS>ATOM
      1 C          60.8827   86.5727    8.9053 C.ar    1  UNL1        0.0146
      2 C          61.2072   86.2451    7.4780 C.ar    1  UNL1       -0.0011
      3 C          62.2465   85.2101    7.1638 C.ar    1  UNL1        0.0014
      4 C          62.9612   84.5028    8.2769 C.ar    1  UNL1        0.0206
      5 C          62.6367   84.8305    9.7042 C.ar    1  UNL1        0.0989
      6 C          61.5974   85.8655   10.0184 C.ar    1  UNL1        0.1511
      7 O          61.2729   86.1932   11.4458 O.3     1  UNL1       -0.4678
      8 C          61.9876   85.4859   12.5589 C.3     1  UNL1        0.2510
      9 C          63.0269   84.4509   12.2446 C.ar    1  UNL1        0.1087
     10 C          63.8897   83.5956   13.1243 C.ar    1  UNL1        0.1518
     11 N          64.7475   82.7392   12.2406 N.ar    1  UNL1       -0.2192
     12 C          64.4148   83.0653   10.8148 C.ar    1  UNL1        0.1828
     13 N          63.3514   84.1233   10.8172 N.ar    1  UNL1       -0.2851
     14 C          63.8939   83.5964   14.6243 C.2     1  UNL1        0.2681
     15 O          63.9657   82.2997   15.3748 O.2     1  UNL1       -0.2682
     16 N          63.8264   84.8941   15.3737 N.am    1  UNL1       -0.2748
     17 C          63.8223   85.0515   16.8654 C.3     1  UNL1        0.0938
     18 C          63.7446   86.5168   17.1767 C.3     1  UNL1        0.0233
     19 C          63.7007   87.2649   15.8773 C.3     1  UNL1        0.0233
     20 C          63.7513   86.2620   14.7630 C.3     1  UNL1        0.0938
     21 C          59.8434   87.6077    9.2196 C.3     1  UNL1        0.0468
     22 C          59.9485   88.4182   10.4774 C.3     1  UNL1        0.0770
     23 N          63.3882   91.2648   11.0392 N.pl3   1  UNL1       -0.3046
     24 C          62.8154   90.5383   12.2199 C.3     1  UNL1        0.1081
     25 C          61.6688   89.5894   12.0327 C.3     1  UNL1        0.0938
     26 N          61.0950   89.3670   10.6647 N.3     1  UNL1       -0.2695
     27 C          61.6678   90.0936    9.4839 C.3     1  UNL1        0.0938
     28 C          62.8144   91.0424    9.6712 C.3     1  UNL1        0.1081
     29 C          67.6676   92.1607   16.3433 C.3     1  UNL1        0.0521
     30 C          66.8844   92.1739   15.0641 C.ar    1  UNL1        0.0593
     31 C          65.7378   91.2251   14.8769 C.ar    1  UNL1        0.0148
     32 C          64.9546   91.2383   13.5976 C.ar    1  UNL1        0.0039
     33 C          65.3179   92.2004   12.5057 C.ar    1  UNL1        0.0310
     34 C          64.5347   92.2136   11.2264 C.ar    1  UNL1        0.0493
     35 C          64.8981   93.1757   10.1345 C.ar    1  UNL1        0.0146
     36 C          66.0447   94.1245   10.3217 C.ar    1  UNL1        0.0028
     37 C          66.8279   94.1113   11.6009 C.ar    1  UNL1        0.0192
     38 C          66.4645   93.1492   12.6929 C.ar    1  UNL1        0.0821
     39 N          67.2478   93.1360   13.9721 N.ar    1  UNL1       -0.2496
@<TRIPOS>BOND
     1    29    30    1
     2    30    31   ar
     3    31    32   ar
     4    32    33   ar
     5    33    34   ar
     6    34    23    1
     7    23    24    1
     8    24    25    1
     9    25    26    1
    10    26    22    1
    11    22    21    1
    12    21     1    1
    13     1     2   ar
    14     2     3   ar
    15     3     4   ar
    16     4     5   ar
    17     5     6   ar
    18     6     7    1
    19     7     8    1
    20     8     9    1
    21     9    10   ar
    22    10    14    1
    23    14    15    2
    24    14    16   am
    25    16    17    1
    26    17    18    1
    27    18    19    1
    28    19    20    1
    29    10    11   ar
    30    11    12   ar
    31    12    13   ar
    32    26    27    1
    33    27    28    1
    34    34    35   ar
    35    35    36   ar
    36    36    37   ar
    37    37    38   ar
    38    38    39   ar
    39    39    30   ar
    40    38    33   ar
    41    28    23    1
    42     6     1   ar
    43    13     9   ar
    44    13     5    1
    45    20    16    1
@<TRIPOS>MOLECULE
*****
 39 45 0 0 0
SMALL
GASTEIGER

@<TRIPOS>ATOM
      1 C          60.7704   88.6494    9.0501 C.ar    1  UNL1        0.0146
      2 C          60.6566   87.2442    8.5379 C.ar    1  UNL1       -0.0011
      3 C          61.3075   86.1184    9.2856 C.ar    1  UNL1        0.0014
      4 C          62.0721   86.3979   10.5454 C.ar    1  UNL1        0.0206
      5 C          62.1859   87.8031   11.0576 C.ar    1  UNL1        0.0989
      6 C          61.5350   88.9288   10.3100 C.ar    1  UNL1        0.1511
      7 O          61.6487   90.3341   10.8222 O.3     1  UNL1       -0.4678
      8 C          62.4134   90.6136   12.0820 C.3     1  UNL1        0.2510
      9 C          63.0642   89.4878   12.8297 C.ar    1  UNL1        0.1087
     10 C          63.8766   89.4574   14.0903 C.ar    1  UNL1        0.1518
     11 N          64.2649   88.0333   14.3572 N.ar    1  UNL1       -0.2192
     12 C          63.6926   87.1836   13.2615 C.ar    1  UNL1        0.1828
     13 N          62.9505   88.0826   12.3175 N.ar    1  UNL1       -0.2851
     14 C          64.2373   90.6428   14.9356 C.2     1  UNL1        0.2681
     15 O          63.4890   90.9129   16.2072 O.2     1  UNL1       -0.2682
     16 N          65.3464   91.5583   14.5092 N.am    1  UNL1       -0.2748
     17 C          65.8173   92.7763   15.2474 C.3     1  UNL1        0.0938
     18 C          66.9413   93.3873   14.4642 C.3     1  UNL1        0.0233
     19 C          67.1650   92.5470   13.2421 C.3     1  UNL1        0.0233
     20 C          66.1794   91.4166   13.2699 C.3     1  UNL1        0.0938
     21 C          60.1195   89.7752    8.3025 C.3     1  UNL1        0.0468
     22 C          59.3401   89.4936    7.0522 C.3     1  UNL1        0.0770
     23 N          59.9075   92.0828    3.4158 N.pl3   1  UNL1       -0.3046
     24 C          58.5485   91.9485    4.0361 C.3     1  UNL1        0.1081
     25 C          58.3593   91.0854    5.2483 C.3     1  UNL1        0.0938
     26 N          59.5292   90.3566    5.8401 N.3     1  UNL1       -0.2695
     27 C          60.8883   90.4910    5.2196 C.3     1  UNL1        0.0938
     28 C          61.0774   91.3541    4.0075 C.3     1  UNL1        0.1081
     29 C          65.6182   94.5737    0.5117 C.3     1  UNL1        0.0521
     30 C          64.2378   94.1667    0.9347 C.ar    1  UNL1        0.0593
     31 C          64.0487   93.3037    2.1468 C.ar    1  UNL1        0.0148
     32 C          62.6683   92.8967    2.5698 C.ar    1  UNL1        0.0039
     33 C          61.4770   93.3529    1.7806 C.ar    1  UNL1        0.0310
     34 C          60.0966   92.9459    2.2036 C.ar    1  UNL1        0.0493
     35 C          58.9053   93.4021    1.4144 C.ar    1  UNL1        0.0146
     36 C          59.0944   94.2652    0.2023 C.ar    1  UNL1        0.0028
     37 C          60.4748   94.6721   -0.2207 C.ar    1  UNL1        0.0192
     38 C          61.6661   94.2160    0.5684 C.ar    1  UNL1        0.0821
     39 N          63.0465   94.6229    0.1455 N.ar    1  UNL1       -0.2496
@<TRIPOS>BOND
     1    29    30    1
     2    30    31   ar
     3    31    32   ar
     4    32    33   ar
     5    33    34   ar
     6    34    23    1
     7    23    24    1
     8    24    25    1
     9    25    26    1
    10    26    22    1
    11    22    21    1
    12    21     1    1
    13     1     2   ar
    14     2     3   ar
    15     3     4   ar
    16     4     5   ar
    17     5     6   ar
    18     6     7    1
    19     7     8    1
    20     8     9    1
    21     9    10   ar
    22    10    14    1
    23    14    15    2
    24    14    16   am
    25    16    17    1
    26    17    18    1
    27    18    19    1
    28    19    20    1
    29    10    11   ar
    30    11    12   ar
    31    12    13   ar
    32    26    27    1
    33    27    28    1
    34    34    35   ar
    35    35    36   ar
    36    36    37   ar
    37    37    38   ar
    38    38    39   ar
    39    39    30   ar
    40    38    33   ar
    41    28    23    1
    42     6     1   ar
    43    13     9   ar
    44    13     5    1
    45    20    16    1
@<TRIPOS>MOLECULE
*****
 39 45 0 0 0
SMALL
GASTEIGER

@<TRIPOS>ATOM
      1 C          59.6519   88.0509    9.9742 C.ar    1  UNL1        0.0146
      2 C          59.4042   88.3903    8.5343 C.ar    1  UNL1       -0.0011
      3 C          60.1520   87.6668    7.4539 C.ar    1  UNL1        0.0014
      4 C          61.1475   86.6039    7.8135 C.ar    1  UNL1        0.0206
      5 C          61.3952   86.2645    9.2534 C.ar    1  UNL1        0.0989
      6 C          60.6474   86.9880   10.3338 C.ar    1  UNL1        0.1511
      7 O          60.8950   86.6486   11.7738 O.3     1  UNL1       -0.4678
      8 C          61.8905   85.5858   12.1333 C.3     1  UNL1        0.2510
      9 C          62.6383   84.8622   11.0529 C.ar    1  UNL1        0.1087
     10 C          63.6721   83.7765   11.1021 C.ar    1  UNL1        0.1518
     11 N          64.0633   83.4448    9.6925 N.ar    1  UNL1       -0.2192
     12 C          63.2714   84.3256    8.7722 C.ar    1  UNL1        0.1828
     13 N          62.3907   85.2016    9.6129 N.ar    1  UNL1       -0.2851
     14 C          64.2187   83.1350   12.3429 C.2     1  UNL1        0.2681
     15 O          65.3626   83.7718   13.0749 O.2     1  UNL1       -0.2682
     16 N          63.6212   81.8567   12.8518 N.am    1  UNL1       -0.2748
     17 C          64.0597   81.1032   14.0724 C.3     1  UNL1        0.0938
     18 C          63.1899   79.8882   14.2045 C.3     1  UNL1        0.0233
     19 C          62.2139   79.8909   13.0655 C.3     1  UNL1        0.0233
     20 C          62.4805   81.1075   12.2295 C.3     1  UNL1        0.0938
     21 C          58.9040   88.7744   11.0547 C.3     1  UNL1        0.0468
     22 C          59.6355   89.2836   12.2612 C.3     1  UNL1        0.0770
     23 N          63.6702   91.2209   11.7948 N.pl3   1  UNL1       -0.3046
     24 C          63.3373   90.4752   13.0530 C.3     1  UNL1        0.1081
     25 C          61.9924   89.8293   13.2085 C.3     1  UNL1        0.0938
     26 N          60.9804   89.9293   12.1058 N.3     1  UNL1       -0.2695
     27 C          61.3134   90.6752   10.8476 C.3     1  UNL1        0.0938
     28 C          62.6583   91.3209   10.6922 C.3     1  UNL1        0.1081
     29 C          68.6721   92.3579   16.3707 C.3     1  UNL1        0.0521
     30 C          67.7579   92.2351   15.1878 C.ar    1  UNL1        0.0593
     31 C          66.4130   91.5894   15.3433 C.ar    1  UNL1        0.0148
     32 C          65.4987   91.4665   14.1605 C.ar    1  UNL1        0.0039
     33 C          65.9294   91.9895   12.8222 C.ar    1  UNL1        0.0310
     34 C          65.0151   91.8667   11.6394 C.ar    1  UNL1        0.0493
     35 C          65.4458   92.3897   10.3011 C.ar    1  UNL1        0.0146
     36 C          66.7907   93.0355   10.1456 C.ar    1  UNL1        0.0028
     37 C          67.7050   93.1583   11.3284 C.ar    1  UNL1        0.0192
     38 C          67.2743   92.6353   12.6667 C.ar    1  UNL1        0.0821
     39 N          68.1886   92.7581   13.8495 N.ar    1  UNL1       -0.2496
@<TRIPOS>BOND
     1    29    30    1
     2    30    31   ar
     3    31    32   ar
     4    32    33   ar
     5    33    34   ar
     6    34    23    1
     7    23    24    1
     8    24    25    1
     9    25    26    1
    10    26    22    1
    11    22    21    1
    12    21     1    1
    13     1     2   ar
    14     2     3   ar
    15     3     4   ar
    16     4     5   ar
    17     5     6   ar
    18     6     7    1
    19     7     8    1
    20     8     9    1
    21     9    10   ar
    22    10    14    1
    23    14    15    2
    24    14    16   am
    25    16    17    1
    26    17    18    1
    27    18    19    1
    28    19    20    1
    29    10    11   ar
    30    11    12   ar
    31    12    13   ar
    32    26    27    1
    33    27    28    1
    34    34    35   ar
    35    35    36   ar
    36    36    37   ar
    37    37    38   ar
    38    38    39   ar
    39    39    30   ar
    40    38    33   ar
    41    28    23    1
    42     6     1   ar
    43    13     9   ar
    44    13     5    1
    45    20    16    1
@<TRIPOS>MOLECULE
*****
 39 45 0 0 0
SMALL
GASTEIGER

@<TRIPOS>ATOM
      1 C          60.3832   91.7961    4.0640 C.ar    1  UNL1        0.0146
      2 C          61.6642   91.1782    4.5406 C.ar    1  UNL1       -0.0011
      3 C          62.8883   91.2279    3.6750 C.ar    1  UNL1        0.0014
      4 C          62.8313   91.8954    2.3329 C.ar    1  UNL1        0.0206
      5 C          61.5502   92.5132    1.8564 C.ar    1  UNL1        0.0989
      6 C          60.3262   92.4636    2.7219 C.ar    1  UNL1        0.1511
      7 O          59.0451   93.0814    2.2454 O.3     1  UNL1       -0.4678
      8 C          58.9880   93.7489    0.9033 C.3     1  UNL1        0.2510
      9 C          60.2122   93.7985    0.0377 C.ar    1  UNL1        0.1087
     10 C          60.4571   94.3832   -1.3217 C.ar    1  UNL1        0.1518
     11 N          61.8895   94.1267   -1.6854 N.ar    1  UNL1       -0.2192
     12 C          62.5299   93.3835   -0.5507 C.ar    1  UNL1        0.1828
     13 N          61.4932   93.1807    0.5143 N.ar    1  UNL1       -0.2851
     14 C          59.4469   95.0988   -2.1688 C.2     1  UNL1        0.2681
     15 O          59.4576   96.5968   -2.2443 O.2     1  UNL1       -0.2682
     16 N          58.4260   94.3162   -2.9404 N.am    1  UNL1       -0.2748
     17 C          57.3591   94.8902   -3.8248 C.3     1  UNL1        0.0938
     18 C          56.5664   93.7510   -4.3941 C.3     1  UNL1        0.0233
     19 C          57.1434   92.4731   -3.8614 C.3     1  UNL1        0.0233
     20 C          58.2927   92.8224   -2.9630 C.3     1  UNL1        0.0938
     21 C          59.1591   91.7465    4.9296 C.3     1  UNL1        0.0468
     22 C          58.6178   90.4248    5.3880 C.3     1  UNL1        0.0770
     23 N          60.6380   88.2071    8.7421 N.pl3   1  UNL1       -0.3046
     24 C          60.5464   89.7037    8.7807 C.3     1  UNL1        0.1081
     25 C          59.8730   90.4430    7.6626 C.3     1  UNL1        0.0938
     26 N          59.2912   89.6856    6.5060 N.3     1  UNL1       -0.2695
     27 C          59.3828   88.1888    6.4675 C.3     1  UNL1        0.0938
     28 C          60.0562   87.4496    7.5855 C.3     1  UNL1        0.1081
     29 C          64.5491   90.4720   13.9213 C.3     1  UNL1        0.0521
     30 C          63.7397   89.7209   12.9060 C.ar    1  UNL1        0.0593
     31 C          63.0663   90.4602   11.7880 C.ar    1  UNL1        0.0148
     32 C          62.2568   89.7091   10.7727 C.ar    1  UNL1        0.0039
     33 C          62.1208   88.2189   10.8754 C.ar    1  UNL1        0.0310
     34 C          61.3114   87.4678    9.8601 C.ar    1  UNL1        0.0493
     35 C          61.1754   85.9775    9.9629 C.ar    1  UNL1        0.0146
     36 C          61.8488   85.2383   11.0810 C.ar    1  UNL1        0.0028
     37 C          62.6583   85.9893   12.0962 C.ar    1  UNL1        0.0192
     38 C          62.7943   87.4796   11.9935 C.ar    1  UNL1        0.0821
     39 N          63.6037   88.2306   13.0088 N.ar    1  UNL1       -0.2496
@<TRIPOS>BOND
     1    29    30    1
     2    30    31   ar
     3    31    32   ar
     4    32    33   ar
     5    33    34   ar
     6    34    23    1
     7    23    24    1
     8    24    25    1
     9    25    26    1
    10    26    22    1
    11    22    21    1
    12    21     1    1
    13     1     2   ar
    14     2     3   ar
    15     3     4   ar
    16     4     5   ar
    17     5     6   ar
    18     6     7    1
    19     7     8    1
    20     8     9    1
    21     9    10   ar
    22    10    14    1
    23    14    15    2
    24    14    16   am
    25    16    17    1
    26    17    18    1
    27    18    19    1
    28    19    20    1
    29    10    11   ar
    30    11    12   ar
    31    12    13   ar
    32    26    27    1
    33    27    28    1
    34    34    35   ar
    35    35    36   ar
    36    36    37   ar
    37    37    38   ar
    38    38    39   ar
    39    39    30   ar
    40    38    33   ar
    41    28    23    1
    42     6     1   ar
    43    13     9   ar
    44    13     5    1
    45    20    16    1
