@<TRIPOS>MOLECULE
*****
 26 29 0 0 0
SMALL
GASTEIGER

@<TRIPOS>ATOM
      1 C          62.1563   89.4090   10.8276 C.ar    1  UNL1        0.2014
      2 N          61.5474   90.1398    9.6678 N.ar    1  UNL1       -0.2136
      3 C          60.6366   89.1900    8.9479 C.ar    1  UNL1        0.0999
      4 C          59.7713   89.3549    7.7338 C.ar    1  UNL1        0.0207
      5 C          58.9521   88.2019    7.2346 C.ar    1  UNL1        0.0016
      6 C          58.9981   86.8840    7.9494 C.ar    1  UNL1        0.0016
      7 C          59.8634   86.7191    9.1635 C.ar    1  UNL1        0.0188
      8 C          60.6826   87.8721    9.6627 C.ar    1  UNL1        0.0801
      9 N          61.6219   88.0074   10.8244 N.ar    1  UNL1       -0.2954
     10 C          65.0741   91.1205   13.7953 C.3     1  UNL1        0.0610
     11 C          64.3925   89.8152   14.0810 C.3     1  UNL1        0.0375
     12 C          63.4199   89.2447   13.0917 C.3     1  UNL1        0.0949
     13 N          63.1289   89.9795   11.8168 N.pl3   1  UNL1       -0.2794
     14 C          63.8106   91.2847   11.5311 C.3     1  UNL1        0.0949
     15 C          64.7832   91.8552   12.5204 C.3     1  UNL1        0.0375
     16 C          67.5186   91.6491   14.4987 C.3     1  UNL1        0.0896
     17 N          66.0467   91.6910   14.7845 N.3     1  UNL1       -0.2715
     18 C          65.5475   92.3033   16.0595 C.3     1  UNL1        0.0896
     19 C          61.9662   86.9303   11.8099 C.3     1  UNL1        0.1354
     20 C          62.6166   85.6633   11.3395 C.ar    1  UNL1        0.0006
     21 C          63.1078   84.6569   12.3375 C.ar    1  UNL1       -0.0001
     22 C          63.7583   83.3898   11.8671 C.ar    1  UNL1        0.0294
     23 C          63.9176   83.1290   10.3985 C.ar    1  UNL1        0.1401
     24 F          64.5681   81.8619    9.9281 F       1  UNL1       -0.2042
     25 C          63.4265   84.1353    9.4005 C.ar    1  UNL1        0.0294
     26 C          62.7760   85.4024    9.8709 C.ar    1  UNL1       -0.0001
@<TRIPOS>BOND
     1    16    17    1
     2    17    18    1
     3    17    10    1
     4    10    11    1
     5    11    12    1
     6    12    13    1
     7    13     1    1
     8     1     2   ar
     9     2     3   ar
    10     3     4   ar
    11     4     5   ar
    12     5     6   ar
    13     6     7   ar
    14     7     8   ar
    15     8     9   ar
    16     9    19    1
    17    19    20    1
    18    20    21   ar
    19    21    22   ar
    20    22    23   ar
    21    23    24    1
    22    23    25   ar
    23    25    26   ar
    24    13    14    1
    25    14    15    1
    26    15    10    1
    27     9     1   ar
    28    26    20   ar
    29     8     3   ar
@<TRIPOS>MOLECULE
*****
 26 29 0 0 0
SMALL
GASTEIGER

@<TRIPOS>ATOM
      1 C          63.2790   84.8616   13.2215 C.ar    1  UNL1        0.2014
      2 N          62.8775   83.8939   14.2949 N.ar    1  UNL1       -0.2136
      3 C          62.7188   82.5420   13.6645 C.ar    1  UNL1        0.0999
      4 C          62.3372   81.2077   14.2336 C.ar    1  UNL1        0.0207
      5 C          62.2591   80.0057   13.3398 C.ar    1  UNL1        0.0016
      6 C          62.5626   80.1380   11.8767 C.ar    1  UNL1        0.0016
      7 C          62.9442   81.4723   11.3076 C.ar    1  UNL1        0.0188
      8 C          63.0223   82.6743   12.2015 C.ar    1  UNL1        0.0801
      9 N          63.3685   84.1079   11.9277 N.ar    1  UNL1       -0.2954
     10 C          64.0753   89.2548   13.7839 C.3     1  UNL1        0.0610
     11 C          64.5575   88.2683   14.8059 C.3     1  UNL1        0.0375
     12 C          64.2920   86.8039   14.6184 C.3     1  UNL1        0.0949
     13 N          63.5445   86.3260   13.4090 N.pl3   1  UNL1       -0.2794
     14 C          63.0623   87.3125   12.3871 C.3     1  UNL1        0.0949
     15 C          63.3278   88.7769   12.5745 C.3     1  UNL1        0.0375
     16 C          64.4027   91.2992   15.3533 C.3     1  UNL1        0.0896
     17 N          64.3408   90.7191   13.9714 N.3     1  UNL1       -0.2715
     18 C          64.5442   91.6034   12.7770 C.3     1  UNL1        0.0896
     19 C          63.7392   84.6862   10.5942 C.3     1  UNL1        0.1354
     20 C          62.6669   85.1502    9.6537 C.ar    1  UNL1        0.0006
     21 C          61.4732   85.8887   10.1828 C.ar    1  UNL1       -0.0001
     22 C          60.4008   86.3527    9.2423 C.ar    1  UNL1        0.0294
     23 C          60.5221   86.0783    7.7725 C.ar    1  UNL1        0.1401
     24 F          59.4497   86.5423    6.8320 F       1  UNL1       -0.2042
     25 C          61.7157   85.3399    7.2434 C.ar    1  UNL1        0.0294
     26 C          62.7881   84.8759    8.1840 C.ar    1  UNL1       -0.0001
@<TRIPOS>BOND
     1    16    17    1
     2    17    18    1
     3    17    10    1
     4    10    11    1
     5    11    12    1
     6    12    13    1
     7    13     1    1
     8     1     2   ar
     9     2     3   ar
    10     3     4   ar
    11     4     5   ar
    12     5     6   ar
    13     6     7   ar
    14     7     8   ar
    15     8     9   ar
    16     9    19    1
    17    19    20    1
    18    20    21   ar
    19    21    22   ar
    20    22    23   ar
    21    23    24    1
    22    23    25   ar
    23    25    26   ar
    24    13    14    1
    25    14    15    1
    26    15    10    1
    27     9     1   ar
    28    26    20   ar
    29     8     3   ar
@<TRIPOS>MOLECULE
*****
 26 29 0 0 0
SMALL
GASTEIGER

@<TRIPOS>ATOM
      1 C          62.7653   86.5217   12.5845 C.ar    1  UNL1        0.2014
      2 N          63.7367   87.4435   13.2604 N.ar    1  UNL1       -0.2136
      3 C          63.5852   88.8052   12.6499 C.ar    1  UNL1        0.0999
      4 C          64.2794   90.1077   12.9169 C.ar    1  UNL1        0.0207
      5 C          63.9087   91.3302   12.1307 C.ar    1  UNL1        0.0016
      6 C          62.8437   91.2500   11.0774 C.ar    1  UNL1        0.0016
      7 C          62.1494   89.9475   10.8104 C.ar    1  UNL1        0.0188
      8 C          62.5202   88.7251   11.5966 C.ar    1  UNL1        0.0801
      9 N          62.0135   87.3138   11.5562 N.ar    1  UNL1       -0.2954
     10 C          62.2051   82.1482   13.4838 C.3     1  UNL1        0.0610
     11 C          62.1018   83.1599   14.5864 C.3     1  UNL1        0.0375
     12 C          62.2886   84.6177   14.2867 C.3     1  UNL1        0.0949
     13 N          62.5786   85.0639   12.8843 N.pl3   1  UNL1       -0.2794
     14 C          62.6818   84.0522   11.7816 C.3     1  UNL1        0.0949
     15 C          62.4951   82.5944   12.0814 C.3     1  UNL1        0.0375
     16 C          60.6653   80.1718   14.1714 C.3     1  UNL1        0.0896
     17 N          62.0183   80.6904   13.7835 N.3     1  UNL1       -0.2715
     18 C          63.1845   79.7512   13.6955 C.3     1  UNL1        0.0896
     19 C          60.9429   86.7871   10.6471 C.3     1  UNL1        0.1354
     20 C          61.3135   86.1649    9.3336 C.ar    1  UNL1        0.0006
     21 C          62.7072   85.6565    9.1111 C.ar    1  UNL1       -0.0001
     22 C          63.0778   85.0343    7.7976 C.ar    1  UNL1        0.0294
     23 C          62.0548   84.9205    6.7064 C.ar    1  UNL1        0.1401
     24 F          62.4255   84.2983    5.3928 F       1  UNL1       -0.2042
     25 C          60.6613   85.4289    6.9289 C.ar    1  UNL1        0.0294
     26 C          60.2906   86.0511    8.2424 C.ar    1  UNL1       -0.0001
@<TRIPOS>BOND
     1    16    17    1
     2    17    18    1
     3    17    10    1
     4    10    11    1
     5    11    12    1
     6    12    13    1
     7    13     1    1
     8     1     2   ar
     9     2     3   ar
    10     3     4   ar
    11     4     5   ar
    12     5     6   ar
    13     6     7   ar
    14     7     8   ar
    15     8     9   ar
    16     9    19    1
    17    19    20    1
    18    20    21   ar
    19    21    22   ar
    20    22    23   ar
    21    23    24    1
    22    23    25   ar
    23    25    26   ar
    24    13    14    1
    25    14    15    1
    26    15    10    1
    27     9     1   ar
    28    26    20   ar
    29     8     3   ar
@<TRIPOS>MOLECULE
*****
 26 29 0 0 0
SMALL
GASTEIGER

@<TRIPOS>ATOM
      1 C          64.6339   91.0569   12.9306 C.ar    1  UNL1        0.2014
      2 N          64.4435   91.2612   14.4043 N.ar    1  UNL1       -0.2136
      3 C          65.6591   91.9610   14.9361 C.ar    1  UNL1        0.0999
      4 C          66.0301   92.4199   16.3151 C.ar    1  UNL1        0.0207
      5 C          67.3428   93.1070   16.5490 C.ar    1  UNL1        0.0016
      6 C          68.2844   93.3352   15.4039 C.ar    1  UNL1        0.0016
      7 C          67.9133   92.8763   14.0249 C.ar    1  UNL1        0.0188
      8 C          66.6007   92.1892   13.7910 C.ar    1  UNL1        0.0801
      9 N          65.9671   91.6304   12.5515 N.ar    1  UNL1       -0.2954
     10 C          61.7175   89.0718   10.1369 C.3     1  UNL1        0.0610
     11 C          62.1940   88.3485   11.3615 C.3     1  UNL1        0.0375
     12 C          63.1662   89.0102   12.2927 C.3     1  UNL1        0.0949
     13 N          63.6618   90.3952   11.9994 N.pl3   1  UNL1       -0.2794
     14 C          63.1853   91.1185   10.7747 C.3     1  UNL1        0.0949
     15 C          62.2131   90.4568    9.8435 C.3     1  UNL1        0.0375
     16 C          59.8055   89.2439    8.3864 C.3     1  UNL1        0.0896
     17 N          60.7454   88.4102    9.2057 N.3     1  UNL1       -0.2715
     18 C          60.7132   86.9147    9.0938 C.3     1  UNL1        0.0896
     19 C          66.5622   91.6430   11.1747 C.3     1  UNL1        0.1354
     20 C          66.7875   92.9461   10.4668 C.ar    1  UNL1        0.0006
     21 C          65.9673   94.1484   10.8299 C.ar    1  UNL1       -0.0001
     22 C          66.1925   95.4516   10.1220 C.ar    1  UNL1        0.0294
     23 C          67.2379   95.5524    9.0510 C.ar    1  UNL1        0.1401
     24 F          67.4632   96.8555    8.3432 F       1  UNL1       -0.2042
     25 C          68.0581   94.3501    8.6880 C.ar    1  UNL1        0.0294
     26 C          67.8329   93.0470    9.3959 C.ar    1  UNL1       -0.0001
@<TRIPOS>BOND
     1    16    17    1
     2    17    18    1
     3    17    10    1
     4    10    11    1
     5    11    12    1
     6    12    13    1
     7    13     1    1
     8     1     2   ar
     9     2     3   ar
    10     3     4   ar
    11     4     5   ar
    12     5     6   ar
    13     6     7   ar
    14     7     8   ar
    15     8     9   ar
    16     9    19    1
    17    19    20    1
    18    20    21   ar
    19    21    22   ar
    20    22    23   ar
    21    23    24    1
    22    23    25   ar
    23    25    26   ar
    24    13    14    1
    25    14    15    1
    26    15    10    1
    27     9     1   ar
    28    26    20   ar
    29     8     3   ar
@<TRIPOS>MOLECULE
*****
 26 29 0 0 0
SMALL
GASTEIGER

@<TRIPOS>ATOM
      1 C          62.7584   86.2353   11.8380 C.ar    1  UNL1        0.2014
      2 N          62.0104   87.0290   10.8081 N.ar    1  UNL1       -0.2136
      3 C          62.3070   88.4815   11.0370 C.ar    1  UNL1        0.0999
      4 C          61.8495   89.7228   10.3301 C.ar    1  UNL1        0.0207
      5 C          62.3231   91.0681   10.7946 C.ar    1  UNL1        0.0016
      6 C          63.2544   91.1721   11.9659 C.ar    1  UNL1        0.0016
      7 C          63.7120   89.9307   12.6727 C.ar    1  UNL1        0.0188
      8 C          63.2383   88.5855   12.2083 C.ar    1  UNL1        0.0801
      9 N          63.5172   87.1972   12.7033 N.ar    1  UNL1       -0.2954
     10 C          62.7305   81.7550   12.2578 C.3     1  UNL1        0.0610
     11 C          63.1731   82.3849   10.9704 C.3     1  UNL1        0.0375
     12 C          63.1824   83.8784   10.8305 C.3     1  UNL1        0.0949
     13 N          62.7491   84.7419   11.9779 N.pl3   1  UNL1       -0.2794
     14 C          62.3064   84.1119   13.2652 C.3     1  UNL1        0.0949
     15 C          62.2971   82.6185   13.4051 C.3     1  UNL1        0.0375
     16 C          62.8223   79.3934   11.1787 C.3     1  UNL1        0.0896
     17 N          62.7212   80.2616   12.3977 N.3     1  UNL1       -0.2715
     18 C          62.6108   79.6363   13.7566 C.3     1  UNL1        0.0896
     19 C          64.4000   86.8346   13.8605 C.3     1  UNL1        0.1354
     20 C          63.8756   86.9297   15.2626 C.ar    1  UNL1        0.0006
     21 C          63.6244   85.6815   16.0557 C.ar    1  UNL1       -0.0001
     22 C          63.1000   85.7765   17.4578 C.ar    1  UNL1        0.0294
     23 C          62.8267   87.1198   18.0669 C.ar    1  UNL1        0.1401
     24 F          62.3022   87.2148   19.4690 F       1  UNL1       -0.2042
     25 C          63.0778   88.3679   17.2738 C.ar    1  UNL1        0.0294
     26 C          63.6022   88.2729   15.8717 C.ar    1  UNL1       -0.0001
@<TRIPOS>BOND
     1    16    17    1
     2    17    18    1
     3    17    10    1
     4    10    11    1
     5    11    12    1
     6    12    13    1
     7    13     1    1
     8     1     2   ar
     9     2     3   ar
    10     3     4   ar
    11     4     5   ar
    12     5     6   ar
    13     6     7   ar
    14     7     8   ar
    15     8     9   ar
    16     9    19    1
    17    19    20    1
    18    20    21   ar
    19    21    22   ar
    20    22    23   ar
    21    23    24    1
    22    23    25   ar
    23    25    26   ar
    24    13    14    1
    25    14    15    1
    26    15    10    1
    27     9     1   ar
    28    26    20   ar
    29     8     3   ar
@<TRIPOS>MOLECULE
*****
 26 29 0 0 0
SMALL
GASTEIGER

@<TRIPOS>ATOM
      1 C          71.8079   74.3723   14.8855 C.ar    1  UNL1        0.2014
      2 N          71.0412   74.3183   16.1737 N.ar    1  UNL1       -0.2136
      3 C          71.0692   72.9033   16.6707 C.ar    1  UNL1        0.0999
      4 C          70.4821   72.2560   17.8898 C.ar    1  UNL1        0.0207
      5 C          70.6789   70.7882   18.1280 C.ar    1  UNL1        0.0016
      6 C          71.4629   69.9677   17.1471 C.ar    1  UNL1        0.0016
      7 C          72.0500   70.6150   15.9280 C.ar    1  UNL1        0.0188
      8 C          71.8532   72.0828   15.6898 C.ar    1  UNL1        0.0801
      9 N          72.3097   72.9908   14.5865 N.ar    1  UNL1       -0.2954
     10 C          72.4839   78.0359   12.3614 C.3     1  UNL1        0.0610
     11 C          71.7159   76.8735   11.8057 C.3     1  UNL1        0.0375
     12 C          71.4906   75.6523   12.6471 C.3     1  UNL1        0.0949
     13 N          72.0333   75.5935   14.0442 N.pl3   1  UNL1       -0.2794
     14 C          72.8013   76.7559   14.5999 C.3     1  UNL1        0.0949
     15 C          73.0266   77.9772   13.7586 C.3     1  UNL1        0.0375
     16 C          73.0598   80.5622   12.1711 C.3     1  UNL1        0.0896
     17 N          72.7092   79.2571   11.5201 N.3     1  UNL1       -0.2715
     18 C          72.5840   79.1733   10.0277 C.3     1  UNL1        0.0896
     19 C          73.1250   72.5878   13.3936 C.3     1  UNL1        0.1354
     20 C          72.4484   72.0316   12.1760 C.ar    1  UNL1        0.0006
     21 C          73.2404   71.7786   10.9275 C.ar    1  UNL1       -0.0001
     22 C          72.5639   71.2224    9.7097 C.ar    1  UNL1        0.0294
     23 C          71.0951   70.9192    9.7405 C.ar    1  UNL1        0.1401
     24 F          70.4186   70.3630    8.5228 F       1  UNL1       -0.2042
     25 C          70.3031   71.1722   10.9889 C.ar    1  UNL1        0.0294
     26 C          70.9796   71.7283   12.2066 C.ar    1  UNL1       -0.0001
@<TRIPOS>BOND
     1    16    17    1
     2    17    18    1
     3    17    10    1
     4    10    11    1
     5    11    12    1
     6    12    13    1
     7    13     1    1
     8     1     2   ar
     9     2     3   ar
    10     3     4   ar
    11     4     5   ar
    12     5     6   ar
    13     6     7   ar
    14     7     8   ar
    15     8     9   ar
    16     9    19    1
    17    19    20    1
    18    20    21   ar
    19    21    22   ar
    20    22    23   ar
    21    23    24    1
    22    23    25   ar
    23    25    26   ar
    24    13    14    1
    25    14    15    1
    26    15    10    1
    27     9     1   ar
    28    26    20   ar
    29     8     3   ar
@<TRIPOS>MOLECULE
*****
 26 29 0 0 0
SMALL
GASTEIGER

@<TRIPOS>ATOM
      1 C          71.3709   73.2883   13.3500 C.ar    1  UNL1        0.2014
      2 N          70.2881   72.6944   12.4985 N.ar    1  UNL1       -0.2136
      3 C          70.2159   71.2263   12.7976 C.ar    1  UNL1        0.0999
      4 C          69.3390   70.1345   12.2602 C.ar    1  UNL1        0.0207
      5 C          69.5002   68.7291   12.7591 C.ar    1  UNL1        0.0016
      6 C          70.5383   68.4156   13.7955 C.ar    1  UNL1        0.0016
      7 C          71.4152   69.5074   14.3329 C.ar    1  UNL1        0.0188
      8 C          71.2540   70.9128   13.8340 C.ar    1  UNL1        0.0801
      9 N          71.9678   72.1871   14.1753 N.ar    1  UNL1       -0.2954
     10 C          72.6106   77.6136   13.4167 C.3     1  UNL1        0.0610
     11 C          71.8744   77.0263   14.5842 C.3     1  UNL1        0.0375
     12 C          71.4612   75.5845   14.5619 C.3     1  UNL1        0.0949
     13 N          71.7841   74.7300   13.3722 N.pl3   1  UNL1       -0.2794
     14 C          72.5203   75.3173   12.2047 C.3     1  UNL1        0.0949
     15 C          72.9336   76.7591   12.2270 C.3     1  UNL1        0.0375
     16 C          72.9204   79.8457   14.7096 C.3     1  UNL1        0.0896
     17 N          73.0239   79.0554   13.4389 N.3     1  UNL1       -0.2715
     18 C          73.5406   79.7068   12.1905 C.3     1  UNL1        0.0896
     19 C          73.0829   72.3345   15.1678 C.3     1  UNL1        0.1354
     20 C          72.7724   72.4945   16.6265 C.ar    1  UNL1        0.0006
     21 C          73.6326   73.3743   17.4844 C.ar    1  UNL1       -0.0001
     22 C          73.3222   73.5344   18.9431 C.ar    1  UNL1        0.0294
     23 C          72.1514   72.8145   19.5441 C.ar    1  UNL1        0.1401
     24 F          71.8409   72.9746   21.0028 F       1  UNL1       -0.2042
     25 C          71.2911   71.9347   18.6863 C.ar    1  UNL1        0.0294
     26 C          71.6016   71.7747   17.2275 C.ar    1  UNL1       -0.0001
@<TRIPOS>BOND
     1    16    17    1
     2    17    18    1
     3    17    10    1
     4    10    11    1
     5    11    12    1
     6    12    13    1
     7    13     1    1
     8     1     2   ar
     9     2     3   ar
    10     3     4   ar
    11     4     5   ar
    12     5     6   ar
    13     6     7   ar
    14     7     8   ar
    15     8     9   ar
    16     9    19    1
    17    19    20    1
    18    20    21   ar
    19    21    22   ar
    20    22    23   ar
    21    23    24    1
    22    23    25   ar
    23    25    26   ar
    24    13    14    1
    25    14    15    1
    26    15    10    1
    27     9     1   ar
    28    26    20   ar
    29     8     3   ar
@<TRIPOS>MOLECULE
*****
 26 29 0 0 0
SMALL
GASTEIGER

@<TRIPOS>ATOM
      1 C          62.9678   86.5500   12.5894 C.ar    1  UNL1        0.2014
      2 N          63.4507   87.5864   13.5603 N.ar    1  UNL1       -0.2136
      3 C          63.5315   88.8977   12.8366 C.ar    1  UNL1        0.0999
      4 C          63.9435   90.2683   13.2859 C.ar    1  UNL1        0.0207
      5 C          63.9224   91.4130   12.3168 C.ar    1  UNL1        0.0016
      6 C          63.4894   91.1872   10.8985 C.ar    1  UNL1        0.0016
      7 C          63.0775   89.8166   10.4493 C.ar    1  UNL1        0.0188
      8 C          63.0985   88.6719   11.4184 C.ar    1  UNL1        0.0801
      9 N          62.7501   87.2209   11.2656 N.ar    1  UNL1       -0.2954
     10 C          62.2908   82.1933   13.4898 C.3     1  UNL1        0.0610
     11 C          62.4910   82.6441   12.0733 C.3     1  UNL1        0.0375
     12 C          62.7166   84.0963   11.7731 C.3     1  UNL1        0.0949
     13 N          62.7421   85.0978   12.8895 N.pl3   1  UNL1       -0.2794
     14 C          62.5419   84.6470   14.3061 C.3     1  UNL1        0.0949
     15 C          62.3162   83.1948   14.6062 C.3     1  UNL1        0.0375
     16 C          63.2059   79.7711   13.7027 C.3     1  UNL1        0.0896
     17 N          62.0651   80.7411   13.7900 N.3     1  UNL1       -0.2715
     18 C          60.6986   80.2588   14.1774 C.3     1  UNL1        0.0896
     19 C          62.2686   86.5574   10.0094 C.3     1  UNL1        0.1354
     20 C          61.1908   87.1999    9.1876 C.ar    1  UNL1        0.0006
     21 C          60.3312   86.3602    8.2897 C.ar    1  UNL1       -0.0001
     22 C          59.2533   87.0027    7.4678 C.ar    1  UNL1        0.0294
     23 C          59.0352   88.4848    7.5437 C.ar    1  UNL1        0.1401
     24 F          57.9574   89.1272    6.7218 F       1  UNL1       -0.2042
     25 C          59.8948   89.3244    8.4415 C.ar    1  UNL1        0.0294
     26 C          60.9726   88.6820    9.2634 C.ar    1  UNL1       -0.0001
@<TRIPOS>BOND
     1    16    17    1
     2    17    18    1
     3    17    10    1
     4    10    11    1
     5    11    12    1
     6    12    13    1
     7    13     1    1
     8     1     2   ar
     9     2     3   ar
    10     3     4   ar
    11     4     5   ar
    12     5     6   ar
    13     6     7   ar
    14     7     8   ar
    15     8     9   ar
    16     9    19    1
    17    19    20    1
    18    20    21   ar
    19    21    22   ar
    20    22    23   ar
    21    23    24    1
    22    23    25   ar
    23    25    26   ar
    24    13    14    1
    25    14    15    1
    26    15    10    1
    27     9     1   ar
    28    26    20   ar
    29     8     3   ar
@<TRIPOS>MOLECULE
*****
 26 29 0 0 0
SMALL
GASTEIGER

@<TRIPOS>ATOM
      1 C          62.6607   86.6747   11.8921 C.ar    1  UNL1        0.2014
      2 N          62.0563   87.1696   10.6115 N.ar    1  UNL1       -0.2136
      3 C          62.3255   88.6417   10.5103 C.ar    1  UNL1        0.0999
      4 C          61.9683   89.6579    9.4664 C.ar    1  UNL1        0.0207
      5 C          62.3819   91.0892    9.6406 C.ar    1  UNL1        0.0016
      6 C          63.1526   91.5043   10.8587 C.ar    1  UNL1        0.0016
      7 C          63.5097   90.4881   11.9026 C.ar    1  UNL1        0.0188
      8 C          63.0962   89.0568   11.7284 C.ar    1  UNL1        0.0801
      9 N          63.3033   87.8411   12.5823 N.ar    1  UNL1       -0.2954
     10 C          62.5629   82.4355   13.3985 C.3     1  UNL1        0.0610
     11 C          62.6707   82.7063   11.9271 C.3     1  UNL1        0.0375
     12 C          62.7033   84.1194   11.4250 C.3     1  UNL1        0.0949
     13 N          62.6281   85.2617   12.3942 N.pl3   1  UNL1       -0.2794
     14 C          62.5202   84.9909   13.8656 C.3     1  UNL1        0.0949
     15 C          62.4876   83.5778   14.3677 C.3     1  UNL1        0.0375
     16 C          61.2181   80.3707   14.2219 C.3     1  UNL1        0.0896
     17 N          62.5303   81.0224   13.9006 N.3     1  UNL1       -0.2715
     18 C          63.8099   80.2610   14.0815 C.3     1  UNL1        0.0896
     19 C          64.0262   87.7993   13.8960 C.3     1  UNL1        0.1354
     20 C          64.1582   89.0459   14.7195 C.ar    1  UNL1        0.0006
     21 C          65.1643   90.0920   14.3407 C.ar    1  UNL1       -0.0001
     22 C          65.2964   91.3388   15.1643 C.ar    1  UNL1        0.0294
     23 C          64.4223   91.5394   16.3667 C.ar    1  UNL1        0.1401
     24 F          64.5544   92.7861   17.1903 F       1  UNL1       -0.2042
     25 C          63.4163   90.4933   16.7455 C.ar    1  UNL1        0.0294
     26 C          63.2842   89.2466   15.9220 C.ar    1  UNL1       -0.0001
@<TRIPOS>BOND
     1    16    17    1
     2    17    18    1
     3    17    10    1
     4    10    11    1
     5    11    12    1
     6    12    13    1
     7    13     1    1
     8     1     2   ar
     9     2     3   ar
    10     3     4   ar
    11     4     5   ar
    12     5     6   ar
    13     6     7   ar
    14     7     8   ar
    15     8     9   ar
    16     9    19    1
    17    19    20    1
    18    20    21   ar
    19    21    22   ar
    20    22    23   ar
    21    23    24    1
    22    23    25   ar
    23    25    26   ar
    24    13    14    1
    25    14    15    1
    26    15    10    1
    27     9     1   ar
    28    26    20   ar
    29     8     3   ar
