@<TRIPOS>MOLECULE
*****
 25 28 0 0 0
SMALL
GASTEIGER

@<TRIPOS>ATOM
      1 C          62.9527   86.4343   12.7181 C.3     1  UNL1        0.1518
      2 N          63.0510   87.8640   12.2749 N.ar    1  UNL1       -0.2662
      3 C          63.7247   88.9750   13.0244 C.ar    1  UNL1        0.0541
      4 C          63.5829   90.2313   12.2172 C.ar    1  UNL1        0.0484
      5 C          62.8216   89.8966   10.9688 C.ar    1  UNL1        0.2759
      6 O          62.4536   90.8566    9.8765 O.2     1  UNL1       -0.2655
      7 N          62.4929   88.4336   11.0045 N.ar    1  UNL1       -0.2148
      8 C          64.2566   91.3423   12.9667 C.3     1  UNL1        0.0286
      9 C          65.0179   91.6770   14.2150 C.3     1  UNL1        0.0049
     10 C          65.1597   90.4207   15.0222 C.3     1  UNL1        0.0059
     11 C          64.4860   89.3096   14.2728 C.3     1  UNL1        0.0352
     12 C          64.3878   87.8800   14.7160 C.3     1  UNL1        0.0059
     13 C          63.9279   89.8792   13.0024 C.3     1  UNL1        0.0088
     14 C          63.3283   88.6184   12.4539 C.3     1  UNL1        0.0007
     15 C          63.1951   89.7979   11.6960 C.3     1  UNL1        0.0007
     16 C          61.7384   87.6735    9.9542 C.ar    1  UNL1        0.0880
     17 C          62.4289   86.6032    9.1619 C.ar    1  UNL1        0.0191
     18 C          61.6746   85.8430    8.1116 C.ar    1  UNL1        0.0015
     19 C          60.2299   86.1531    7.8537 C.ar    1  UNL1        0.0000
     20 C          59.5394   87.2233    8.6460 C.ar    1  UNL1        0.0054
     21 C          60.2937   87.9836    9.6963 C.ar    1  UNL1        0.0891
     22 C          59.6033   89.0538   10.4887 C.3     1  UNL1        0.4200
     23 F          58.9129   90.1241   11.2810 F       1  UNL1       -0.1658
     24 F          59.7147   89.9897    9.3217 F       1  UNL1       -0.1658
     25 F          59.4918   88.1180   11.6556 F       1  UNL1       -0.1658
@<TRIPOS>BOND
     1     1     2    1
     2     2     3   ar
     3     3     4   ar
     4     4     5   ar
     5     5     6    2
     6     5     7   ar
     7     7    16    1
     8    16    17   ar
     9    17    18   ar
    10    18    19   ar
    11    19    20   ar
    12    20    21   ar
    13    21    22    1
    14    22    23    1
    15    22    24    1
    16    22    25    1
    17     4     8    1
    18     8     9    1
    19     9    10    1
    20    10    11    1
    21    11    12    1
    22    11    13    1
    23    13    14    1
    24    13    15    1
    25     7     2   ar
    26    21    16   ar
    27    13     8    1
    28    11     3    1
@<TRIPOS>MOLECULE
*****
 25 28 0 0 0
SMALL
GASTEIGER

@<TRIPOS>ATOM
      1 C          61.8948   85.2580   11.0828 C.3     1  UNL1        0.1518
      2 N          62.6806   85.4969   12.3381 N.ar    1  UNL1       -0.2662
      3 C          63.2038   86.8202   12.8123 C.ar    1  UNL1        0.0541
      4 C          63.9276   86.5954   14.1068 C.ar    1  UNL1        0.0484
      5 C          63.8516   85.1332   14.4326 C.ar    1  UNL1        0.2759
      6 O          64.4426   84.4670   15.6396 O.2     1  UNL1       -0.2655
      7 N          63.0809   84.4543   13.3395 N.ar    1  UNL1       -0.2148
      8 C          64.4510   87.9188   14.5811 C.3     1  UNL1        0.0286
      9 C          64.5270   89.3810   14.2553 C.3     1  UNL1        0.0049
     10 C          63.8033   89.6057   12.9608 C.3     1  UNL1        0.0059
     11 C          63.2799   88.2824   12.4866 C.3     1  UNL1        0.0352
     12 C          62.4942   88.0436   11.2313 C.3     1  UNL1        0.0059
     13 C          63.6802   87.2398   13.4879 C.3     1  UNL1        0.0088
     14 C          63.0622   86.0523   12.8113 C.3     1  UNL1        0.0007
     15 C          63.7417   85.8412   14.0267 C.3     1  UNL1        0.0007
     16 C          62.7657   82.9898   13.2614 C.ar    1  UNL1        0.0880
     17 C          61.8857   82.3558   14.2976 C.ar    1  UNL1        0.0191
     18 C          61.5705   80.8914   14.2195 C.ar    1  UNL1        0.0015
     19 C          62.1352   80.0610   13.1053 C.ar    1  UNL1        0.0000
     20 C          63.0151   80.6951   12.0691 C.ar    1  UNL1        0.0054
     21 C          63.3304   82.1595   12.1471 C.ar    1  UNL1        0.0891
     22 C          64.2104   82.7935   11.1109 C.3     1  UNL1        0.4200
     23 F          65.0903   83.4275   10.0748 F       1  UNL1       -0.1658
     24 F          65.1458   83.2562   12.1884 F       1  UNL1       -0.1658
     25 F          63.2750   82.3308   10.0334 F       1  UNL1       -0.1658
@<TRIPOS>BOND
     1     1     2    1
     2     2     3   ar
     3     3     4   ar
     4     4     5   ar
     5     5     6    2
     6     5     7   ar
     7     7    16    1
     8    16    17   ar
     9    17    18   ar
    10    18    19   ar
    11    19    20   ar
    12    20    21   ar
    13    21    22    1
    14    22    23    1
    15    22    24    1
    16    22    25    1
    17     4     8    1
    18     8     9    1
    19     9    10    1
    20    10    11    1
    21    11    12    1
    22    11    13    1
    23    13    14    1
    24    13    15    1
    25     7     2   ar
    26    21    16   ar
    27    13     8    1
    28    11     3    1
@<TRIPOS>MOLECULE
*****
 25 28 0 0 0
SMALL
GASTEIGER

@<TRIPOS>ATOM
      1 C          63.8521   84.4154   10.3096 C.3     1  UNL1        0.1518
      2 N          63.2779   84.0909   11.6569 N.ar    1  UNL1       -0.2662
      3 C          62.9500   82.7195   12.1684 C.ar    1  UNL1        0.0541
      4 C          62.4003   82.8620   13.5568 C.ar    1  UNL1        0.0484
      5 C          62.3886   84.3214   13.9032 C.ar    1  UNL1        0.2759
      6 O          61.9171   84.9167   15.1969 O.2     1  UNL1       -0.2655
      7 N          62.9310   85.0809   12.7291 N.ar    1  UNL1       -0.2148
      8 C          62.0723   81.4906   14.0684 C.3     1  UNL1        0.0286
      9 C          62.0840   80.0312   13.7220 C.3     1  UNL1        0.0049
     10 C          62.6337   79.8888   12.3337 C.3     1  UNL1        0.0059
     11 C          62.9617   81.2601   11.8220 C.3     1  UNL1        0.0352
     12 C          63.5359   81.5845   10.4748 C.3     1  UNL1        0.0059
     13 C          62.6147   82.2501   12.8942 C.3     1  UNL1        0.0088
     14 C          63.0196   83.4973   12.1657 C.3     1  UNL1        0.0007
     15 C          62.5035   83.6311   13.4693 C.3     1  UNL1        0.0007
     16 C          63.0973   86.5691   12.6421 C.ar    1  UNL1        0.0880
     17 C          63.9176   87.2932   13.6681 C.ar    1  UNL1        0.0191
     18 C          64.0840   88.7814   13.5813 C.ar    1  UNL1        0.0015
     19 C          63.4300   89.5455   12.4685 C.ar    1  UNL1        0.0000
     20 C          62.6097   88.8214   11.4424 C.ar    1  UNL1        0.0054
     21 C          62.4433   87.3332   11.5293 C.ar    1  UNL1        0.0891
     22 C          61.6230   86.6091   10.5032 C.3     1  UNL1        0.4200
     23 F          60.8027   85.8850    9.4773 F       1  UNL1       -0.1658
     24 F          62.5195   87.1296    9.4191 F       1  UNL1       -0.1658
     25 F          60.7264   86.0886   11.5874 F       1  UNL1       -0.1658
@<TRIPOS>BOND
     1     1     2    1
     2     2     3   ar
     3     3     4   ar
     4     4     5   ar
     5     5     6    2
     6     5     7   ar
     7     7    16    1
     8    16    17   ar
     9    17    18   ar
    10    18    19   ar
    11    19    20   ar
    12    20    21   ar
    13    21    22    1
    14    22    23    1
    15    22    24    1
    16    22    25    1
    17     4     8    1
    18     8     9    1
    19     9    10    1
    20    10    11    1
    21    11    12    1
    22    11    13    1
    23    13    14    1
    24    13    15    1
    25     7     2   ar
    26    21    16   ar
    27    13     8    1
    28    11     3    1
@<TRIPOS>MOLECULE
*****
 25 28 0 0 0
SMALL
GASTEIGER

@<TRIPOS>ATOM
      1 C          63.7330   84.2459   10.3139 C.3     1  UNL1        0.1518
      2 N          63.1816   83.9270   11.6720 N.ar    1  UNL1       -0.2662
      3 C          62.8640   82.5577   12.1952 C.ar    1  UNL1        0.0541
      4 C          62.3371   82.7059   13.5919 C.ar    1  UNL1        0.0484
      5 C          62.3292   84.1669   13.9317 C.ar    1  UNL1        0.2759
      6 O          61.8785   84.7677   15.2301 O.2     1  UNL1       -0.2655
      7 N          62.8511   84.9216   12.7451 N.ar    1  UNL1       -0.2148
      8 C          62.0195   81.3365   14.1152 C.3     1  UNL1        0.0286
      9 C          62.0274   79.8755   13.7754 C.3     1  UNL1        0.0049
     10 C          62.5542   79.7273   12.3788 C.3     1  UNL1        0.0059
     11 C          62.8719   81.0967   11.8555 C.3     1  UNL1        0.0352
     12 C          63.4233   81.4155   10.4974 C.3     1  UNL1        0.0059
     13 C          62.5414   82.0912   12.9286 C.3     1  UNL1        0.0088
     14 C          62.9325   83.3355   12.1878 C.3     1  UNL1        0.0007
     15 C          62.4379   83.4747   13.4991 C.3     1  UNL1        0.0007
     16 C          63.0140   86.4096   12.6486 C.ar    1  UNL1        0.0880
     17 C          62.3731   87.1625   11.5205 C.ar    1  UNL1        0.0191
     18 C          62.5359   88.6505   11.4238 C.ar    1  UNL1        0.0015
     19 C          63.3396   89.3856   12.4551 C.ar    1  UNL1        0.0000
     20 C          63.9805   88.6327   13.5831 C.ar    1  UNL1        0.0054
     21 C          63.8177   87.1447   13.6799 C.ar    1  UNL1        0.0891
     22 C          64.4587   86.3918   14.8079 C.3     1  UNL1        0.4200
     23 F          65.0996   85.6390   15.9358 F       1  UNL1       -0.1658
     24 F          63.7414   87.2625   15.7966 F       1  UNL1       -0.1658
     25 F          65.1759   85.5211   13.8192 F       1  UNL1       -0.1658
@<TRIPOS>BOND
     1     1     2    1
     2     2     3   ar
     3     3     4   ar
     4     4     5   ar
     5     5     6    2
     6     5     7   ar
     7     7    16    1
     8    16    17   ar
     9    17    18   ar
    10    18    19   ar
    11    19    20   ar
    12    20    21   ar
    13    21    22    1
    14    22    23    1
    15    22    24    1
    16    22    25    1
    17     4     8    1
    18     8     9    1
    19     9    10    1
    20    10    11    1
    21    11    12    1
    22    11    13    1
    23    13    14    1
    24    13    15    1
    25     7     2   ar
    26    21    16   ar
    27    13     8    1
    28    11     3    1
@<TRIPOS>MOLECULE
*****
 25 28 0 0 0
SMALL
GASTEIGER

@<TRIPOS>ATOM
      1 C          62.1394   86.8304   10.9911 C.3     1  UNL1        0.1518
      2 N          62.9823   86.9630   12.2249 N.ar    1  UNL1       -0.2662
      3 C          63.4254   88.2496   12.8558 C.ar    1  UNL1        0.0541
      4 C          64.2470   87.9139   14.0651 C.ar    1  UNL1        0.0484
      5 C          64.3116   86.4199   14.1815 C.ar    1  UNL1        0.2759
      6 O          65.0315   85.6489   15.2480 O.2     1  UNL1       -0.2655
      7 N          63.5300   85.8321   13.0442 N.ar    1  UNL1       -0.2148
      8 C          64.6902   89.2006   14.6961 C.3     1  UNL1        0.0286
      9 C          64.6256   90.6947   14.5797 C.3     1  UNL1        0.0049
     10 C          63.8040   91.0303   13.3704 C.3     1  UNL1        0.0059
     11 C          63.3608   89.7437   12.7394 C.3     1  UNL1        0.0352
     12 C          62.5179   89.6112   11.5057 C.3     1  UNL1        0.0059
     13 C          63.9085   88.6129   13.5587 C.3     1  UNL1        0.0088
     14 C          63.3471   87.4796   12.7522 C.3     1  UNL1        0.0007
     15 C          64.1185   87.1645   13.8875 C.3     1  UNL1        0.0007
     16 C          63.3309   84.3702   12.7736 C.ar    1  UNL1        0.0880
     17 C          63.6491   83.8081   11.4197 C.ar    1  UNL1        0.0191
     18 C          63.4500   82.3462   11.1490 C.ar    1  UNL1        0.0015
     19 C          62.9329   81.4465   12.2320 C.ar    1  UNL1        0.0000
     20 C          62.6147   82.0086   13.5859 C.ar    1  UNL1        0.0054
     21 C          62.8138   83.4705   13.8566 C.ar    1  UNL1        0.0891
     22 C          62.4956   84.0327   15.2104 C.3     1  UNL1        0.4200
     23 F          62.1775   84.5948   16.5641 F       1  UNL1       -0.1658
     24 F          61.3342   84.7812   14.6267 F       1  UNL1       -0.1658
     25 F          63.6571   83.2841   15.7942 F       1  UNL1       -0.1658
@<TRIPOS>BOND
     1     1     2    1
     2     2     3   ar
     3     3     4   ar
     4     4     5   ar
     5     5     6    2
     6     5     7   ar
     7     7    16    1
     8    16    17   ar
     9    17    18   ar
    10    18    19   ar
    11    19    20   ar
    12    20    21   ar
    13    21    22    1
    14    22    23    1
    15    22    24    1
    16    22    25    1
    17     4     8    1
    18     8     9    1
    19     9    10    1
    20    10    11    1
    21    11    12    1
    22    11    13    1
    23    13    14    1
    24    13    15    1
    25     7     2   ar
    26    21    16   ar
    27    13     8    1
    28    11     3    1
@<TRIPOS>MOLECULE
*****
 25 28 0 0 0
SMALL
GASTEIGER

@<TRIPOS>ATOM
      1 C          60.9869   86.5761   12.1249 C.3     1  UNL1        0.1518
      2 N          61.7682   85.7959   11.1095 N.ar    1  UNL1       -0.2662
      3 C          62.7433   84.6947   11.4036 C.ar    1  UNL1        0.0541
      4 C          63.2893   84.1981   10.0976 C.ar    1  UNL1        0.0484
      5 C          62.6516   84.9925    8.9966 C.ar    1  UNL1        0.2759
      6 O          62.9088   84.8281    7.5279 O.2     1  UNL1       -0.2655
      7 N          61.7115   85.9799    9.6219 N.ar    1  UNL1       -0.2148
      8 C          64.2644   83.0969   10.3917 C.3     1  UNL1        0.0286
      9 C          64.9021   82.3025   11.4927 C.3     1  UNL1        0.0049
     10 C          64.3561   82.7991   12.7986 C.3     1  UNL1        0.0059
     11 C          63.3810   83.9003   12.5046 C.3     1  UNL1        0.0352
     12 C          62.5997   84.6805   13.5200 C.3     1  UNL1        0.0059
     13 C          63.3243   84.0844   11.0170 C.3     1  UNL1        0.0088
     14 C          62.3193   85.1974   10.9825 C.3     1  UNL1        0.0007
     15 C          62.8319   84.7312    9.7564 C.3     1  UNL1        0.0007
     16 C          60.8636   86.9765    8.8886 C.ar    1  UNL1        0.0880
     17 C          59.8461   86.5060    7.8919 C.ar    1  UNL1        0.0191
     18 C          58.9981   87.5025    7.1584 C.ar    1  UNL1        0.0015
     19 C          59.1675   88.9694    7.4218 C.ar    1  UNL1        0.0000
     20 C          60.1850   89.4399    8.4185 C.ar    1  UNL1        0.0054
     21 C          61.0330   88.4434    9.1519 C.ar    1  UNL1        0.0891
     22 C          62.0505   88.9139   10.1486 C.3     1  UNL1        0.4200
     23 F          63.0680   89.3843   11.1452 F       1  UNL1       -0.1658
     24 F          63.1302   88.2158    9.3759 F       1  UNL1       -0.1658
     25 F          60.9708   89.6120   10.9213 F       1  UNL1       -0.1658
@<TRIPOS>BOND
     1     1     2    1
     2     2     3   ar
     3     3     4   ar
     4     4     5   ar
     5     5     6    2
     6     5     7   ar
     7     7    16    1
     8    16    17   ar
     9    17    18   ar
    10    18    19   ar
    11    19    20   ar
    12    20    21   ar
    13    21    22    1
    14    22    23    1
    15    22    24    1
    16    22    25    1
    17     4     8    1
    18     8     9    1
    19     9    10    1
    20    10    11    1
    21    11    12    1
    22    11    13    1
    23    13    14    1
    24    13    15    1
    25     7     2   ar
    26    21    16   ar
    27    13     8    1
    28    11     3    1
@<TRIPOS>MOLECULE
*****
 25 28 0 0 0
SMALL
GASTEIGER

@<TRIPOS>ATOM
      1 C          62.2331   85.9120   12.0681 C.3     1  UNL1        0.1518
      2 N          62.4605   87.3616   11.7563 N.ar    1  UNL1       -0.2662
      3 C          63.2617   88.3254   12.5803 C.ar    1  UNL1        0.0541
      4 C          63.2230   89.6612   11.8990 C.ar    1  UNL1        0.0484
      5 C          62.3979   89.5229   10.6540 C.ar    1  UNL1        0.2759
      6 O          62.0969   90.6143    9.6700 O.2     1  UNL1       -0.2655
      7 N          61.9266   88.1017   10.5658 N.ar    1  UNL1       -0.2148
      8 C          64.0243   90.6251   12.7230 C.3     1  UNL1        0.0286
      9 C          64.8494   90.7635   13.9680 C.3     1  UNL1        0.0049
     10 C          64.8881   89.4276   14.6492 C.3     1  UNL1        0.0059
     11 C          64.0869   88.4637   13.8253 C.3     1  UNL1        0.0352
     12 C          63.8595   87.0142   14.1371 C.3     1  UNL1        0.0059
     13 C          63.5530   89.2038   12.6348 C.3     1  UNL1        0.0088
     14 C          62.8162   88.0650   11.9942 C.3     1  UNL1        0.0007
     15 C          62.7798   89.3193   11.3546 C.3     1  UNL1        0.0007
     16 C          61.0716   87.5221    9.4781 C.ar    1  UNL1        0.0880
     17 C          59.7963   88.2055    9.0823 C.ar    1  UNL1        0.0191
     18 C          58.9412   87.6260    7.9946 C.ar    1  UNL1        0.0015
     19 C          59.3613   86.3631    7.3029 C.ar    1  UNL1        0.0000
     20 C          60.6366   85.6797    7.6987 C.ar    1  UNL1        0.0054
     21 C          61.4917   86.2592    8.7864 C.ar    1  UNL1        0.0891
     22 C          62.7670   85.5758    9.1822 C.3     1  UNL1        0.4200
     23 F          64.0421   84.8924    9.5781 F       1  UNL1       -0.1658
     24 F          61.9784   84.5160    9.8930 F       1  UNL1       -0.1658
     25 F          63.5555   86.6355    8.4715 F       1  UNL1       -0.1658
@<TRIPOS>BOND
     1     1     2    1
     2     2     3   ar
     3     3     4   ar
     4     4     5   ar
     5     5     6    2
     6     5     7   ar
     7     7    16    1
     8    16    17   ar
     9    17    18   ar
    10    18    19   ar
    11    19    20   ar
    12    20    21   ar
    13    21    22    1
    14    22    23    1
    15    22    24    1
    16    22    25    1
    17     4     8    1
    18     8     9    1
    19     9    10    1
    20    10    11    1
    21    11    12    1
    22    11    13    1
    23    13    14    1
    24    13    15    1
    25     7     2   ar
    26    21    16   ar
    27    13     8    1
    28    11     3    1
@<TRIPOS>MOLECULE
*****
 25 28 0 0 0
SMALL
GASTEIGER

@<TRIPOS>ATOM
      1 C          44.4073   76.9337   17.1922 C.3     1  UNL1        0.1518
      2 N          45.6490   77.3961   17.8955 N.ar    1  UNL1       -0.2662
      3 C          46.6840   76.5140   18.5284 C.ar    1  UNL1        0.0541
      4 C          47.7482   77.3945   19.1135 C.ar    1  UNL1        0.0484
      5 C          47.3708   78.8206   18.8421 C.ar    1  UNL1        0.2759
      6 O          48.1536   80.0330   19.2516 O.2     1  UNL1       -0.2655
      7 N          46.0735   78.8216   18.0894 N.ar    1  UNL1       -0.2148
      8 C          48.7833   76.5124   19.7464 C.3     1  UNL1        0.0286
      9 C          49.1607   75.0862   20.0177 C.3     1  UNL1        0.0049
     10 C          48.0965   74.2058   19.4327 C.3     1  UNL1        0.0059
     11 C          47.0613   75.0878   18.7998 C.3     1  UNL1        0.0352
     12 C          45.8198   74.6255   18.0964 C.3     1  UNL1        0.0059
     13 C          47.4858   76.5134   18.9936 C.3     1  UNL1        0.0088
     14 C          46.3306   77.1715   18.2992 C.3     1  UNL1        0.0007
     15 C          47.3298   77.9982   18.8485 C.3     1  UNL1        0.0007
     16 C          45.3308   80.0351   17.6139 C.ar    1  UNL1        0.0880
     17 C          45.3473   80.4024   16.1597 C.ar    1  UNL1        0.0191
     18 C          44.6047   81.6158   15.6841 C.ar    1  UNL1        0.0015
     19 C          43.8456   82.4619   16.6628 C.ar    1  UNL1        0.0000
     20 C          43.8291   82.0946   18.1171 C.ar    1  UNL1        0.0054
     21 C          44.5717   80.8812   18.5926 C.ar    1  UNL1        0.0891
     22 C          44.5552   80.5139   20.0469 C.3     1  UNL1        0.4200
     23 F          44.5387   80.1466   21.5011 F       1  UNL1       -0.1658
     24 F          43.6352   79.3677   19.7470 F       1  UNL1       -0.1658
     25 F          45.4753   81.6600   20.3468 F       1  UNL1       -0.1658
@<TRIPOS>BOND
     1     1     2    1
     2     2     3   ar
     3     3     4   ar
     4     4     5   ar
     5     5     6    2
     6     5     7   ar
     7     7    16    1
     8    16    17   ar
     9    17    18   ar
    10    18    19   ar
    11    19    20   ar
    12    20    21   ar
    13    21    22    1
    14    22    23    1
    15    22    24    1
    16    22    25    1
    17     4     8    1
    18     8     9    1
    19     9    10    1
    20    10    11    1
    21    11    12    1
    22    11    13    1
    23    13    14    1
    24    13    15    1
    25     7     2   ar
    26    21    16   ar
    27    13     8    1
    28    11     3    1
@<TRIPOS>MOLECULE
*****
 25 28 0 0 0
SMALL
GASTEIGER

@<TRIPOS>ATOM
      1 C          63.8405   84.5813    9.7673 C.3     1  UNL1        0.1518
      2 N          62.6724   85.4766   10.0572 N.ar    1  UNL1       -0.2662
      3 C          61.5924   85.8581    9.0888 C.ar    1  UNL1        0.0541
      4 C          60.6317   86.7648    9.7996 C.ar    1  UNL1        0.0484
      5 C          61.1181   86.9435   11.2072 C.ar    1  UNL1        0.2759
      6 O          60.4589   87.7729   12.2692 O.2     1  UNL1       -0.2655
      7 N          62.3792   86.1474   11.3665 N.ar    1  UNL1       -0.2148
      8 C          59.5516   87.1464    8.8311 C.3     1  UNL1        0.0286
      9 C          59.0652   86.9677    7.4235 C.3     1  UNL1        0.0049
     10 C          60.0259   86.0611    6.7128 C.3     1  UNL1        0.0059
     11 C          61.1060   85.6794    7.6811 C.3     1  UNL1        0.0352
     12 C          62.2741   84.7842    7.3912 C.3     1  UNL1        0.0059
     13 C          60.8129   86.3502    8.9904 C.3     1  UNL1        0.0088
     14 C          61.9910   85.8304    9.7597 C.3     1  UNL1        0.0007
     15 C          61.0890   86.6817   10.4270 C.3     1  UNL1        0.0007
     16 C          63.2029   86.0406   12.6156 C.ar    1  UNL1        0.0880
     17 C          63.6957   87.2826   13.2973 C.ar    1  UNL1        0.0191
     18 C          64.5193   87.1760   14.5464 C.ar    1  UNL1        0.0015
     19 C          64.8501   85.8274   15.1138 C.ar    1  UNL1        0.0000
     20 C          64.3573   84.5855   14.4321 C.ar    1  UNL1        0.0054
     21 C          63.5337   84.6921   13.1830 C.ar    1  UNL1        0.0891
     22 C          63.0408   83.4501   12.5012 C.3     1  UNL1        0.4200
     23 F          62.5481   82.2083   11.8196 F       1  UNL1       -0.1658
     24 F          64.4549   82.9747   12.3451 F       1  UNL1       -0.1658
     25 F          61.6268   83.9256   12.6574 F       1  UNL1       -0.1658
@<TRIPOS>BOND
     1     1     2    1
     2     2     3   ar
     3     3     4   ar
     4     4     5   ar
     5     5     6    2
     6     5     7   ar
     7     7    16    1
     8    16    17   ar
     9    17    18   ar
    10    18    19   ar
    11    19    20   ar
    12    20    21   ar
    13    21    22    1
    14    22    23    1
    15    22    24    1
    16    22    25    1
    17     4     8    1
    18     8     9    1
    19     9    10    1
    20    10    11    1
    21    11    12    1
    22    11    13    1
    23    13    14    1
    24    13    15    1
    25     7     2   ar
    26    21    16   ar
    27    13     8    1
    28    11     3    1
