@<TRIPOS>MOLECULE
*****
 40 44 0 0 0
SMALL
GASTEIGER

@<TRIPOS>ATOM
      1 O          59.0017   87.3060    6.4025 O.2     1  UNL1       -0.2749
      2 C          59.3725   88.6881    6.8525 C.2     1  UNL1        0.2256
      3 N          60.1496   88.8806    8.1209 N.am    1  UNL1       -0.2766
      4 C          60.5204   90.2628    8.5708 C.3     1  UNL1        0.1126
      5 C          61.2975   90.4553    9.8393 C.3     1  UNL1        0.1173
      6 N          61.7039   89.2659   10.6578 N.3     1  UNL1       -0.1520
      7 C          61.3331   87.8838   10.2079 C.3     1  UNL1        0.1173
      8 C          60.5560   87.6912    8.9394 C.3     1  UNL1        0.1126
      9 C          58.9661   89.8775    6.0339 C.3     1  UNL1        0.0811
     10 C          57.9220   90.8680    5.6111 C.3     1  UNL1        0.0142
     11 C          59.3064   90.9472    5.0390 C.3     1  UNL1        0.0314
     12 C          60.3021   91.6106    4.1342 C.ar    1  UNL1       -0.0220
     13 C          59.8777   92.7554    3.2630 C.ar    1  UNL1       -0.0043
     14 C          60.8734   93.4187    2.3583 C.ar    1  UNL1        0.0035
     15 C          62.2936   92.9371    2.3248 C.ar    1  UNL1        0.0714
     16 C          62.7180   91.7922    3.1960 C.ar    1  UNL1        0.0035
     17 C          61.7223   91.1290    4.1007 C.ar    1  UNL1       -0.0043
     18 C          63.2893   93.6004    1.4200 C.3     1  UNL1        0.4186
     19 F          64.2850   94.2638    0.5153 F       1  UNL1       -0.1659
     20 F          64.2334   92.4515    1.6166 F       1  UNL1       -0.1659
     21 F          62.3453   94.7494    1.2234 F       1  UNL1       -0.1659
     22 S          62.4810   89.4584   11.9262 S.O2    1  UNL1        0.0634
     23 O          62.6366   87.9722   12.0566 O.2     1  UNL1       -0.1528
     24 O          62.3254   90.9446   11.7959 O.2     1  UNL1       -0.1528
     25 C          63.2581   89.6511   13.1947 C.ar    1  UNL1        0.1222
     26 C          64.3918   90.6323   13.2381 C.ar    1  UNL1        0.0229
     27 C          65.1689   90.8249   14.5065 C.ar    1  UNL1        0.0370
     28 C          64.8123   90.0363   15.7316 C.ar    1  UNL1        0.0070
     29 C          63.6786   89.0550   15.6883 C.ar    1  UNL1        0.0728
     30 C          62.9015   88.8624   14.4198 C.ar    1  UNL1        0.0238
     31 C          66.3026   91.8062   14.5499 C.ar    1  UNL1        0.1632
     32 N          67.6279   91.6532   13.8643 N.ar    1  UNL1       -0.1289
     33 N          68.4544   92.8652   14.1772 N.ar    1  UNL1       -0.1258
     34 C          67.6399   93.7672   15.0562 C.ar    1  UNL1        0.1992
     35 N          66.3100   93.1127   15.2866 N.ar    1  UNL1       -0.3187
     36 H          65.5717   93.4768   15.8265 H       1  UNL1        0.1690
     37 C          63.3220   88.2664   16.9134 C.3     1  UNL1        0.4186
     38 F          62.9655   87.4777   18.1385 F       1  UNL1       -0.1659
     39 F          63.1452   89.5417   17.6829 F       1  UNL1       -0.1659
     40 F          63.4989   86.9910   16.1439 F       1  UNL1       -0.1659
@<TRIPOS>BOND
     1     1     2    2
     2     9     2    1
     3     9    10    1
     4    10    11    1
     5    11    12    1
     6    12    13   ar
     7    13    14   ar
     8    14    15   ar
     9    15    18    1
    10    18    19    1
    11    18    20    1
    12    18    21    1
    13    15    16   ar
    14    16    17   ar
    15     2     3   am
    16     3     4    1
    17     4     5    1
    18     5     6    1
    19     6    22    1
    20    22    23    2
    21    22    24    2
    22    22    25    1
    23    25    26   ar
    24    26    27   ar
    25    27    31    1
    26    31    32   ar
    27    32    33   ar
    28    33    34   ar
    29    34    35   ar
    30    27    28   ar
    31    28    29   ar
    32    29    37    1
    33    37    38    1
    34    37    39    1
    35    37    40    1
    36    29    30   ar
    37     6     7    1
    38     7     8    1
    39    11     9    1
    40    17    12   ar
    41     8     3    1
    42    30    25   ar
    43    35    31   ar
    44    35    36    1
@<TRIPOS>MOLECULE
*****
 40 44 0 0 0
SMALL
GASTEIGER

@<TRIPOS>ATOM
      1 O          64.8567   92.6643   17.3536 O.2     1  UNL1       -0.2749
      2 C          65.3537   92.4082   15.9617 C.2     1  UNL1        0.2256
      3 N          64.8600   91.2163   15.1964 N.am    1  UNL1       -0.2766
      4 C          65.3571   90.9602   13.8045 C.3     1  UNL1        0.1126
      5 C          64.8634   89.7683   13.0393 C.3     1  UNL1        0.1173
      6 N          63.8726   88.8325   13.6659 N.3     1  UNL1       -0.1520
      7 C          63.3756   89.0886   15.0577 C.3     1  UNL1        0.1173
      8 C          63.8693   90.2805   15.8231 C.3     1  UNL1        0.1126
      9 C          66.3444   93.3441   15.3350 C.3     1  UNL1        0.0811
     10 C          67.6278   94.1170   15.4090 C.3     1  UNL1        0.0142
     11 C          66.7771   94.1919   14.1758 C.3     1  UNL1        0.0314
     12 C          66.5356   94.7248   12.7945 C.ar    1  UNL1       -0.0220
     13 C          66.3930   93.7781   11.6398 C.ar    1  UNL1       -0.0043
     14 C          66.1516   94.3109   10.2586 C.ar    1  UNL1        0.0035
     15 C          66.0528   95.7904   10.0321 C.ar    1  UNL1        0.0714
     16 C          66.1954   96.7371   11.1868 C.ar    1  UNL1        0.0035
     17 C          66.4368   96.2043   12.5680 C.ar    1  UNL1       -0.0043
     18 C          65.8114   96.3232    8.6508 C.3     1  UNL1        0.4186
     19 F          65.5701   96.8560    7.2696 F       1  UNL1       -0.1659
     20 F          64.4682   96.8328    9.0821 F       1  UNL1       -0.1659
     21 F          67.1546   95.8136    8.2195 F       1  UNL1       -0.1659
     22 S          63.3790   87.6406   12.9007 S.O2    1  UNL1        0.0634
     23 O          62.8531   88.5473   11.8276 O.2     1  UNL1       -0.1528
     24 O          63.9048   86.7339   13.9736 O.2     1  UNL1       -0.1528
     25 C          62.8853   86.4486   12.1354 C.ar    1  UNL1        0.1222
     26 C          62.9342   85.0849   12.7580 C.ar    1  UNL1        0.0229
     27 C          62.4405   83.8930   11.9928 C.ar    1  UNL1        0.0370
     28 C          61.8979   84.0649   10.6049 C.ar    1  UNL1        0.0070
     29 C          61.8490   85.4287    9.9824 C.ar    1  UNL1        0.0728
     30 C          62.3427   86.6205   10.7476 C.ar    1  UNL1        0.0238
     31 C          62.4894   82.5291   12.6153 C.ar    1  UNL1        0.1632
     32 N          62.2668   82.2130   14.0646 N.ar    1  UNL1       -0.1289
     33 N          62.4093   80.7304   14.2429 N.ar    1  UNL1       -0.1258
     34 C          62.7200   80.1303   12.9037 C.ar    1  UNL1        0.1992
     35 N          62.7694   81.2420   11.8979 N.ar    1  UNL1       -0.3187
     36 H          62.9534   81.1440   10.9357 H       1  UNL1        0.1690
     37 C          61.3064   85.6005    8.5945 C.3     1  UNL1        0.4186
     38 F          60.7638   85.7724    7.2067 F       1  UNL1       -0.1659
     39 F          60.0305   86.1490    9.1613 F       1  UNL1       -0.1659
     40 F          62.5823   85.0521    8.0278 F       1  UNL1       -0.1659
@<TRIPOS>BOND
     1     1     2    2
     2     9     2    1
     3     9    10    1
     4    10    11    1
     5    11    12    1
     6    12    13   ar
     7    13    14   ar
     8    14    15   ar
     9    15    18    1
    10    18    19    1
    11    18    20    1
    12    18    21    1
    13    15    16   ar
    14    16    17   ar
    15     2     3   am
    16     3     4    1
    17     4     5    1
    18     5     6    1
    19     6    22    1
    20    22    23    2
    21    22    24    2
    22    22    25    1
    23    25    26   ar
    24    26    27   ar
    25    27    31    1
    26    31    32   ar
    27    32    33   ar
    28    33    34   ar
    29    34    35   ar
    30    27    28   ar
    31    28    29   ar
    32    29    37    1
    33    37    38    1
    34    37    39    1
    35    37    40    1
    36    29    30   ar
    37     6     7    1
    38     7     8    1
    39    11     9    1
    40    17    12   ar
    41     8     3    1
    42    30    25   ar
    43    35    31   ar
    44    35    36    1
@<TRIPOS>MOLECULE
*****
 40 44 0 0 0
SMALL
GASTEIGER

@<TRIPOS>ATOM
      1 O          64.1674   90.9365   16.4353 O.2     1  UNL1       -0.2749
      2 C          64.5414   91.4050   15.0602 C.2     1  UNL1        0.2256
      3 N          63.8121   90.8728   13.8624 N.am    1  UNL1       -0.2766
      4 C          64.1860   91.3413   12.4873 C.3     1  UNL1        0.1126
      5 C          63.4567   90.8091   11.2895 C.3     1  UNL1        0.1173
      6 N          62.3533   89.8085   11.4667 N.3     1  UNL1       -0.1520
      7 C          61.9793   89.3401   12.8417 C.3     1  UNL1        0.1173
      8 C          62.7087   89.8722   14.0396 C.3     1  UNL1        0.1126
      9 C          65.6448   92.4056   14.8830 C.3     1  UNL1        0.0811
     10 C          66.8151   93.1610   15.4395 C.3     1  UNL1        0.0142
     11 C          66.3855   93.3833   14.0197 C.3     1  UNL1        0.0314
     12 C          66.5651   94.0761   12.7014 C.ar    1  UNL1       -0.0220
     13 C          66.2853   95.5448   12.5817 C.ar    1  UNL1       -0.0043
     14 C          66.4649   96.2376   11.2635 C.ar    1  UNL1        0.0035
     15 C          66.9244   95.4615   10.0649 C.ar    1  UNL1        0.0714
     16 C          67.2043   93.9928   10.1845 C.ar    1  UNL1        0.0035
     17 C          67.0246   93.3000   11.5028 C.ar    1  UNL1       -0.0043
     18 C          67.1040   96.1543    8.7466 C.3     1  UNL1        0.4186
     19 F          67.2837   96.8471    7.4283 F       1  UNL1       -0.1659
     20 F          65.7720   96.8227    8.9163 F       1  UNL1       -0.1659
     21 F          68.4361   95.4860    8.5769 F       1  UNL1       -0.1659
     22 S          61.6240   89.2764   10.2689 S.O2    1  UNL1        0.0634
     23 O          62.6371   88.1777   10.1400 O.2     1  UNL1       -0.1528
     24 O          60.6108   90.3749   10.3977 O.2     1  UNL1       -0.1528
     25 C          60.8945   88.7442    9.0710 C.ar    1  UNL1        0.1222
     26 C          60.0036   89.6489    8.2724 C.ar    1  UNL1        0.0229
     27 C          59.2742   89.1167    7.0746 C.ar    1  UNL1        0.0370
     28 C          59.4358   87.6799    6.6754 C.ar    1  UNL1        0.0070
     29 C          60.3267   86.7752    7.4740 C.ar    1  UNL1        0.0728
     30 C          61.0561   87.3074    8.6718 C.ar    1  UNL1        0.0238
     31 C          58.3833   90.0214    6.2760 C.ar    1  UNL1        0.1632
     32 N          56.8918   89.9120    6.1599 N.ar    1  UNL1       -0.1289
     33 N          56.4141   91.0173    5.2654 N.ar    1  UNL1       -0.1258
     34 C          57.6104   91.8098    4.8287 C.ar    1  UNL1        0.1992
     35 N          58.8274   91.1943    5.4533 N.ar    1  UNL1       -0.3187
     36 H          59.7548   91.5055    5.3426 H       1  UNL1        0.1690
     37 C          60.4882   85.3384    7.0748 C.3     1  UNL1        0.4186
     38 F          60.6498   83.9015    6.6756 F       1  UNL1       -0.1659
     39 F          61.9785   85.5086    7.0649 F       1  UNL1       -0.1659
     40 F          58.9980   85.1681    7.0847 F       1  UNL1       -0.1659
@<TRIPOS>BOND
     1     1     2    2
     2     9     2    1
     3     9    10    1
     4    10    11    1
     5    11    12    1
     6    12    13   ar
     7    13    14   ar
     8    14    15   ar
     9    15    18    1
    10    18    19    1
    11    18    20    1
    12    18    21    1
    13    15    16   ar
    14    16    17   ar
    15     2     3   am
    16     3     4    1
    17     4     5    1
    18     5     6    1
    19     6    22    1
    20    22    23    2
    21    22    24    2
    22    22    25    1
    23    25    26   ar
    24    26    27   ar
    25    27    31    1
    26    31    32   ar
    27    32    33   ar
    28    33    34   ar
    29    34    35   ar
    30    27    28   ar
    31    28    29   ar
    32    29    37    1
    33    37    38    1
    34    37    39    1
    35    37    40    1
    36    29    30   ar
    37     6     7    1
    38     7     8    1
    39    11     9    1
    40    17    12   ar
    41     8     3    1
    42    30    25   ar
    43    35    31   ar
    44    35    36    1
@<TRIPOS>MOLECULE
*****
 40 44 0 0 0
SMALL
GASTEIGER

@<TRIPOS>ATOM
      1 O          58.3539   87.9877    5.8061 O.2     1  UNL1       -0.2749
      2 C          59.0490   89.1881    6.3770 C.2     1  UNL1        0.2256
      3 N          59.8520   89.0608    7.6375 N.am    1  UNL1       -0.2766
      4 C          60.5471   90.2612    8.2085 C.3     1  UNL1        0.1126
      5 C          61.3502   90.1339    9.4689 C.3     1  UNL1        0.1173
      6 N          61.4582   88.8061   10.1585 N.3     1  UNL1       -0.1520
      7 C          60.7632   87.6058    9.5876 C.3     1  UNL1        0.1173
      8 C          59.9600   87.7331    8.3271 C.3     1  UNL1        0.1126
      9 C          58.9409   90.5158    5.6875 C.3     1  UNL1        0.0811
     10 C          58.1975   91.7952    5.4415 C.3     1  UNL1        0.0142
     11 C          59.4973   91.5361    4.7391 C.3     1  UNL1        0.0314
     12 C          60.5690   91.9756    3.7860 C.ar    1  UNL1       -0.0220
     13 C          61.9343   91.3585    3.8563 C.ar    1  UNL1       -0.0043
     14 C          63.0060   91.7980    2.9032 C.ar    1  UNL1        0.0035
     15 C          62.7123   92.8547    1.8799 C.ar    1  UNL1        0.0714
     16 C          61.3470   93.4718    1.8097 C.ar    1  UNL1        0.0035
     17 C          60.2754   93.0323    2.7627 C.ar    1  UNL1       -0.0043
     18 C          63.7840   93.2942    0.9268 C.3     1  UNL1        0.4186
     19 F          64.8557   93.7337   -0.0263 F       1  UNL1       -0.1659
     20 F          64.7359   93.4609    2.0740 F       1  UNL1       -0.1659
     21 F          62.8321   93.1275   -0.2204 F       1  UNL1       -0.1659
     22 S          62.2613   88.6788   11.4190 S.O2    1  UNL1        0.0634
     23 O          62.3364   90.1734   11.5221 O.2     1  UNL1       -0.1528
     24 O          62.1861   87.1843   11.3158 O.2     1  UNL1       -0.1528
     25 C          63.0644   88.5514   12.6795 C.ar    1  UNL1        0.1222
     26 C          63.4803   89.7809   13.4313 C.ar    1  UNL1        0.0229
     27 C          64.2834   89.6535   14.6917 C.ar    1  UNL1        0.0370
     28 C          64.6705   88.2965   15.2004 C.ar    1  UNL1        0.0070
     29 C          64.2545   87.0670   14.4487 C.ar    1  UNL1        0.0728
     30 C          63.4515   87.1944   13.1882 C.ar    1  UNL1        0.0238
     31 C          64.6994   90.8831   15.4435 C.ar    1  UNL1        0.1632
     32 N          63.8923   91.5914   16.4908 N.ar    1  UNL1       -0.1289
     33 N          64.6897   92.7663   16.9745 N.ar    1  UNL1       -0.1258
     34 C          65.9895   92.7839   16.2263 C.ar    1  UNL1        0.1992
     35 N          65.9955   91.6200   15.2801 N.ar    1  UNL1       -0.3187
     36 H          66.7226   91.3817   14.6605 H       1  UNL1        0.1690
     37 C          64.6416   85.7100   14.9574 C.3     1  UNL1        0.4186
     38 F          65.0287   84.3530   15.4661 F       1  UNL1       -0.1659
     39 F          66.0693   86.1575   15.0647 F       1  UNL1       -0.1659
     40 F          63.2140   85.2625   14.8501 F       1  UNL1       -0.1659
@<TRIPOS>BOND
     1     1     2    2
     2     9     2    1
     3     9    10    1
     4    10    11    1
     5    11    12    1
     6    12    13   ar
     7    13    14   ar
     8    14    15   ar
     9    15    18    1
    10    18    19    1
    11    18    20    1
    12    18    21    1
    13    15    16   ar
    14    16    17   ar
    15     2     3   am
    16     3     4    1
    17     4     5    1
    18     5     6    1
    19     6    22    1
    20    22    23    2
    21    22    24    2
    22    22    25    1
    23    25    26   ar
    24    26    27   ar
    25    27    31    1
    26    31    32   ar
    27    32    33   ar
    28    33    34   ar
    29    34    35   ar
    30    27    28   ar
    31    28    29   ar
    32    29    37    1
    33    37    38    1
    34    37    39    1
    35    37    40    1
    36    29    30   ar
    37     6     7    1
    38     7     8    1
    39    11     9    1
    40    17    12   ar
    41     8     3    1
    42    30    25   ar
    43    35    31   ar
    44    35    36    1
@<TRIPOS>MOLECULE
*****
 40 44 0 0 0
SMALL
GASTEIGER

@<TRIPOS>ATOM
      1 O          61.5165   85.5273   17.3743 O.2     1  UNL1       -0.2749
      2 C          62.3301   85.6312   16.1183 C.2     1  UNL1        0.2256
      3 N          63.0719   86.8974   15.8079 N.am    1  UNL1       -0.2766
      4 C          63.8856   87.0012   14.5519 C.3     1  UNL1        0.1126
      5 C          64.6273   88.2674   14.2414 C.3     1  UNL1        0.1173
      6 N          64.5555   89.4298   15.1868 N.3     1  UNL1       -0.1520
      7 C          63.7419   89.3260   16.4427 C.3     1  UNL1        0.1173
      8 C          63.0001   88.0597   16.7532 C.3     1  UNL1        0.1126
      9 C          62.4019   84.4688   15.1730 C.3     1  UNL1        0.0811
     10 C          62.4037   82.9882   14.9324 C.3     1  UNL1        0.0142
     11 C          62.5245   83.9361   13.7762 C.3     1  UNL1        0.0314
     12 C          62.6650   84.1758   12.3021 C.ar    1  UNL1       -0.0220
     13 C          63.4650   83.2261   11.4607 C.ar    1  UNL1       -0.0043
     14 C          63.6055   83.4659    9.9866 C.ar    1  UNL1        0.0035
     15 C          62.9459   84.6553    9.3540 C.ar    1  UNL1        0.0714
     16 C          62.1459   85.6050   10.1954 C.ar    1  UNL1        0.0035
     17 C          62.0054   85.3653   11.6695 C.ar    1  UNL1       -0.0043
     18 C          63.0864   84.8950    7.8799 C.3     1  UNL1        0.4186
     19 F          63.2268   85.1347    6.4059 F       1  UNL1       -0.1659
     20 F          63.8782   86.1383    8.1576 F       1  UNL1       -0.1659
     21 F          62.2945   83.6517    7.6023 F       1  UNL1       -0.1659
     22 S          65.2973   90.6960   14.8763 S.O2    1  UNL1        0.0634
     23 O          63.9981   91.4437   14.8211 O.2     1  UNL1       -0.1528
     24 O          66.5965   89.9484   14.9315 O.2     1  UNL1       -0.1528
     25 C          66.0392   91.9622   14.5658 C.ar    1  UNL1        0.1222
     26 C          65.6740   92.7676   13.3542 C.ar    1  UNL1        0.0229
     27 C          66.4158   94.0337   13.0438 C.ar    1  UNL1        0.0370
     28 C          67.5229   94.4946   13.9449 C.ar    1  UNL1        0.0070
     29 C          67.8881   93.6892   15.1565 C.ar    1  UNL1        0.0728
     30 C          67.1462   92.4231   15.4670 C.ar    1  UNL1        0.0238
     31 C          66.0507   94.8391   11.8321 C.ar    1  UNL1        0.1632
     32 N          66.0019   94.3351   10.4202 N.ar    1  UNL1       -0.1289
     33 N          65.5913   95.4744    9.5352 N.ar    1  UNL1       -0.1258
     34 C          65.3862   96.6826   10.4001 C.ar    1  UNL1        0.1992
     35 N          65.6701   96.2899   11.8197 N.ar    1  UNL1       -0.3187
     36 H          65.6162   96.8808   12.6053 H       1  UNL1        0.1690
     37 C          68.9951   94.1501   16.0577 C.3     1  UNL1        0.4186
     38 F          70.1022   94.6109   16.9588 F       1  UNL1       -0.1659
     39 F          69.2908   92.7256   16.4229 F       1  UNL1       -0.1659
     40 F          68.6995   95.5746   15.6924 F       1  UNL1       -0.1659
@<TRIPOS>BOND
     1     1     2    2
     2     9     2    1
     3     9    10    1
     4    10    11    1
     5    11    12    1
     6    12    13   ar
     7    13    14   ar
     8    14    15   ar
     9    15    18    1
    10    18    19    1
    11    18    20    1
    12    18    21    1
    13    15    16   ar
    14    16    17   ar
    15     2     3   am
    16     3     4    1
    17     4     5    1
    18     5     6    1
    19     6    22    1
    20    22    23    2
    21    22    24    2
    22    22    25    1
    23    25    26   ar
    24    26    27   ar
    25    27    31    1
    26    31    32   ar
    27    32    33   ar
    28    33    34   ar
    29    34    35   ar
    30    27    28   ar
    31    28    29   ar
    32    29    37    1
    33    37    38    1
    34    37    39    1
    35    37    40    1
    36    29    30   ar
    37     6     7    1
    38     7     8    1
    39    11     9    1
    40    17    12   ar
    41     8     3    1
    42    30    25   ar
    43    35    31   ar
    44    35    36    1
@<TRIPOS>MOLECULE
*****
 40 44 0 0 0
SMALL
GASTEIGER

@<TRIPOS>ATOM
      1 O          57.1299   89.7483    4.8340 O.2     1  UNL1       -0.2749
      2 C          58.3181   90.4054    5.4715 C.2     1  UNL1        0.2256
      3 N          59.0554   89.7109    6.5778 N.am    1  UNL1       -0.2766
      4 C          60.2437   90.3680    7.2154 C.3     1  UNL1        0.1126
      5 C          60.9810   89.6735    8.3217 C.3     1  UNL1        0.1173
      6 N          60.5301   88.3219    8.7906 N.3     1  UNL1       -0.1520
      7 C          59.3419   87.6648    8.1531 C.3     1  UNL1        0.1173
      8 C          58.6045   88.3593    7.0467 C.3     1  UNL1        0.1126
      9 C          58.7691   91.7570    5.0026 C.3     1  UNL1        0.0811
     10 C          58.8643   93.2393    5.2114 C.3     1  UNL1        0.0142
     11 C          59.4548   92.6157    3.9817 C.3     1  UNL1        0.0314
     12 C          60.1917   92.7514    2.6822 C.ar    1  UNL1       -0.0220
     13 C          61.6731   92.5215    2.6325 C.ar    1  UNL1       -0.0043
     14 C          62.4100   92.6572    1.3330 C.ar    1  UNL1        0.0035
     15 C          61.6654   93.0228    0.0832 C.ar    1  UNL1        0.0714
     16 C          60.1839   93.2526    0.1329 C.ar    1  UNL1        0.0035
     17 C          59.4471   93.1169    1.4324 C.ar    1  UNL1       -0.0043
     18 C          62.4023   93.1584   -1.2163 C.3     1  UNL1        0.4186
     19 F          63.1392   93.2941   -2.5157 F       1  UNL1       -0.1659
     20 F          61.1215   92.9387   -1.9655 F       1  UNL1       -0.1659
     21 F          63.6830   93.3782   -0.4670 F       1  UNL1       -0.1659
     22 S          61.2673   87.6274    9.8969 S.O2    1  UNL1        0.0634
     23 O          60.6382   86.3252    9.4988 O.2     1  UNL1       -0.1528
     24 O          61.8965   88.9295   10.2950 O.2     1  UNL1       -0.1528
     25 C          62.0047   86.9329   11.0033 C.ar    1  UNL1        0.1222
     26 C          62.0025   85.4350   11.0814 C.ar    1  UNL1        0.0229
     27 C          62.7398   84.7405   12.1877 C.ar    1  UNL1        0.0370
     28 C          63.4793   85.5441   13.2161 C.ar    1  UNL1        0.0070
     29 C          63.4815   87.0420   13.1381 C.ar    1  UNL1        0.0728
     30 C          62.7442   87.7364   12.0317 C.ar    1  UNL1        0.0238
     31 C          62.7376   83.2425   12.2658 C.ar    1  UNL1        0.1632
     32 N          63.1634   82.3023   11.1774 N.ar    1  UNL1       -0.1289
     33 N          62.9982   80.9005   11.6849 N.ar    1  UNL1       -0.1258
     34 C          62.4704   80.9744   13.0870 C.ar    1  UNL1        0.1992
     35 N          62.3093   82.4218   13.4460 N.ar    1  UNL1       -0.3187
     36 H          61.9803   82.7718   14.3053 H       1  UNL1        0.1690
     37 C          64.2210   87.8455   14.1664 C.3     1  UNL1        0.4186
     38 F          64.9605   88.6490   15.1947 F       1  UNL1       -0.1659
     39 F          64.2115   86.6669   15.0942 F       1  UNL1       -0.1659
     40 F          64.2305   89.0241   13.2386 F       1  UNL1       -0.1659
@<TRIPOS>BOND
     1     1     2    2
     2     9     2    1
     3     9    10    1
     4    10    11    1
     5    11    12    1
     6    12    13   ar
     7    13    14   ar
     8    14    15   ar
     9    15    18    1
    10    18    19    1
    11    18    20    1
    12    18    21    1
    13    15    16   ar
    14    16    17   ar
    15     2     3   am
    16     3     4    1
    17     4     5    1
    18     5     6    1
    19     6    22    1
    20    22    23    2
    21    22    24    2
    22    22    25    1
    23    25    26   ar
    24    26    27   ar
    25    27    31    1
    26    31    32   ar
    27    32    33   ar
    28    33    34   ar
    29    34    35   ar
    30    27    28   ar
    31    28    29   ar
    32    29    37    1
    33    37    38    1
    34    37    39    1
    35    37    40    1
    36    29    30   ar
    37     6     7    1
    38     7     8    1
    39    11     9    1
    40    17    12   ar
    41     8     3    1
    42    30    25   ar
    43    35    31   ar
    44    35    36    1
