@<TRIPOS>MOLECULE
*****
 33 35 0 0 0
SMALL
GASTEIGER

@<TRIPOS>ATOM
      1 C          63.9627   86.9136   14.7653 C.ar    1  UNL1        0.0531
      2 C          64.2075   88.1488   13.9501 C.ar    1  UNL1        0.0167
      3 C          63.9375   89.5017   14.5389 C.ar    1  UNL1        0.0505
      4 C          63.4227   89.6196   15.9429 C.ar    1  UNL1        0.0170
      5 C          63.1780   88.3844   16.7581 C.ar    1  UNL1        0.0307
      6 C          63.4480   87.0315   16.1693 C.ar    1  UNL1        0.1402
      7 F          63.2032   85.7963   16.9845 F       1  UNL1       -0.2044
      8 N          61.5945   85.6279   11.2125 N.pl3   1  UNL1       -0.2456
      9 C          62.6785   85.1541   12.1347 C.2     1  UNL1        0.3505
     10 N          63.1487   86.0345   13.2544 N.2     1  UNL1       -0.0663
     11 C          64.2327   85.5607   14.1765 C.3     1  UNL1        0.2279
     12 C          64.8466   84.2064   13.9790 C.3     1  UNL1        0.0626
     13 C          64.3765   83.3260   12.8593 C.3     1  UNL1        0.0838
     14 C          63.2924   83.7998   11.9371 C.3     1  UNL1        0.3553
     15 F          63.5624   82.4469   11.3483 F       1  UNL1       -0.1914
     16 F          62.3022   83.8037   10.8105 F       1  UNL1       -0.1914
     17 H          61.1915   86.5167   11.3422 H       1  UNL1        0.2883
     18 H          61.2859   85.0500   10.4777 H       1  UNL1        0.2883
     19 C          65.2230   85.5568   15.3031 C.3     1  UNL1        0.2460
     20 F          66.6872   85.7096   15.0152 F       1  UNL1       -0.2293
     21 N          64.1823   90.7368   13.7237 N.am    1  UNL1       -0.2791
     22 C          65.5146   91.4234   13.7839 C.2     1  UNL1        0.2688
     23 O          66.6021   90.8748   14.6593 O.2     1  UNL1       -0.2681
     24 H          63.4685   91.0969   13.1492 H       1  UNL1        0.1552
     25 C          65.7593   92.6585   12.9687 C.ar    1  UNL1        0.1541
     26 C          66.3562   93.8753   13.6115 C.ar    1  UNL1        0.1258
     27 N          66.6010   95.1104   12.7963 N.ar    1  UNL1       -0.2070
     28 C          66.2489   95.1287   11.3384 C.ar    1  UNL1        0.2469
     29 C          65.6520   93.9120   10.6955 C.ar    1  UNL1        0.1566
     30 N          65.4072   92.6769   11.5107 N.ar    1  UNL1       -0.2328
     31 O          66.4937   96.3639   10.5232 O.3     1  UNL1       -0.4265
     32 C          67.2161   96.2664    9.2123 C.3     1  UNL1        0.4044
     33 F          68.1923   95.1524    8.9749 F       1  UNL1       -0.1809
@<TRIPOS>BOND
     1     8     9    1
     2     9    10    2
     3    10    11    1
     4    11    19    1
     5    19    20    1
     6    11     1    1
     7     1     2   ar
     8     2     3   ar
     9     3    21    1
    10    21    22   am
    11    22    23    2
    12    22    25    1
    13    25    26   ar
    14    26    27   ar
    15    27    28   ar
    16    28    31    1
    17    31    32    1
    18    32    33    1
    19    28    29   ar
    20    29    30   ar
    21     3     4   ar
    22     4     5   ar
    23     5     6   ar
    24     6     7    1
    25    11    12    1
    26    12    13    1
    27    13    14    1
    28    14    15    1
    29    14    16    1
    30    14     9    1
    31     6     1   ar
    32    30    25   ar
    33     8    17    1
    34     8    18    1
    35    21    24    1
@<TRIPOS>MOLECULE
*****
 33 35 0 0 0
SMALL
GASTEIGER

@<TRIPOS>ATOM
      1 C          61.9705   87.1160   10.5658 C.ar    1  UNL1        0.0531
      2 C          62.9058   88.1190   11.1735 C.ar    1  UNL1        0.0167
      3 C          62.4954   89.5577   11.2817 C.ar    1  UNL1        0.0505
      4 C          61.1498   89.9935   10.7824 C.ar    1  UNL1        0.0170
      5 C          60.2145   88.9905   10.1747 C.ar    1  UNL1        0.0307
      6 C          60.6249   87.5518   10.0664 C.ar    1  UNL1        0.1402
      7 F          59.6896   86.5488    9.4588 F       1  UNL1       -0.2044
      8 N          62.4393   84.7489   14.3156 N.pl3   1  UNL1       -0.2456
      9 C          62.5533   84.6219   12.8253 C.2     1  UNL1        0.3505
     10 N          62.2669   85.8042   11.9478 N.2     1  UNL1       -0.0663
     11 C          62.3809   85.6773   10.4575 C.3     1  UNL1        0.2279
     12 C          62.7814   84.3681    9.8448 C.3     1  UNL1        0.0626
     13 C          63.0679   83.1858   10.7223 C.3     1  UNL1        0.0838
     14 C          62.9538   83.3127   12.2126 C.3     1  UNL1        0.3553
     15 F          63.3642   81.8740   12.1043 F       1  UNL1       -0.1914
     16 F          62.9823   82.9399   13.6652 F       1  UNL1       -0.1914
     17 H          62.1764   85.6082   14.7177 H       1  UNL1        0.2883
     18 H          62.6273   83.9729   14.8915 H       1  UNL1        0.2883
     19 C          62.3524   86.0501    9.0049 C.3     1  UNL1        0.2460
     20 F          63.4774   85.6376    8.1025 F       1  UNL1       -0.2293
     21 N          63.4307   90.5607   11.8894 N.am    1  UNL1       -0.2791
     22 C          64.0727   90.2802   13.2157 C.2     1  UNL1        0.2688
     23 O          63.7794   88.9967   13.9344 O.2     1  UNL1       -0.2681
     24 H          63.6232   91.4032   11.4177 H       1  UNL1        0.1552
     25 C          65.0080   91.2832   13.8234 C.ar    1  UNL1        0.1541
     26 C          65.9774   92.0276   12.9538 C.ar    1  UNL1        0.1258
     27 N          66.9127   93.0306   13.5615 N.ar    1  UNL1       -0.2070
     28 C          66.8785   93.2892   15.0387 C.ar    1  UNL1        0.2469
     29 C          65.9091   92.5448   15.9082 C.ar    1  UNL1        0.1566
     30 N          64.9738   91.5418   15.3005 N.ar    1  UNL1       -0.2328
     31 O          67.8138   94.2922   15.6463 O.3     1  UNL1       -0.4265
     32 C          69.1703   93.8618   16.1202 C.3     1  UNL1        0.4044
     33 F          69.3856   92.4581   16.6032 F       1  UNL1       -0.1809
@<TRIPOS>BOND
     1     8     9    1
     2     9    10    2
     3    10    11    1
     4    11    19    1
     5    19    20    1
     6    11     1    1
     7     1     2   ar
     8     2     3   ar
     9     3    21    1
    10    21    22   am
    11    22    23    2
    12    22    25    1
    13    25    26   ar
    14    26    27   ar
    15    27    28   ar
    16    28    31    1
    17    31    32    1
    18    32    33    1
    19    28    29   ar
    20    29    30   ar
    21     3     4   ar
    22     4     5   ar
    23     5     6   ar
    24     6     7    1
    25    11    12    1
    26    12    13    1
    27    13    14    1
    28    14    15    1
    29    14    16    1
    30    14     9    1
    31     6     1   ar
    32    30    25   ar
    33     8    17    1
    34     8    18    1
    35    21    24    1
@<TRIPOS>MOLECULE
*****
 33 35 0 0 0
SMALL
GASTEIGER

@<TRIPOS>ATOM
      1 C          63.9636   89.2998   14.5654 C.ar    1  UNL1        0.0531
      2 C          63.9408   87.8689   14.1159 C.ar    1  UNL1        0.0167
      3 C          63.5628   86.7853   15.0817 C.ar    1  UNL1        0.0505
      4 C          63.2076   87.1324   16.4971 C.ar    1  UNL1        0.0170
      5 C          63.2304   88.5633   16.9466 C.ar    1  UNL1        0.0307
      6 C          63.6084   89.6470   15.9808 C.ar    1  UNL1        0.1402
      7 F          63.6312   91.0779   16.4303 F       1  UNL1       -0.2044
      8 N          67.8085   91.4679   15.1978 N.pl3   1  UNL1       -0.2456
      9 C          66.6269   91.4183   14.2751 C.2     1  UNL1        0.3505
     10 N          65.5232   90.4330   14.5222 N.2     1  UNL1       -0.0663
     11 C          64.3416   90.3834   13.5996 C.3     1  UNL1        0.2279
     12 C          64.2637   91.3191   12.4298 C.3     1  UNL1        0.0626
     13 C          65.3673   92.3044   12.1827 C.3     1  UNL1        0.0838
     14 C          66.5490   92.3540   13.1054 C.3     1  UNL1        0.3553
     15 F          66.9270   93.4376   12.1395 F       1  UNL1       -0.1914
     16 F          67.8619   92.7799   13.6925 F       1  UNL1       -0.1914
     17 H          67.8597   90.8538   15.9656 H       1  UNL1        0.2883
     18 H          68.5329   92.1146   15.0356 H       1  UNL1        0.2883
     19 C          63.0287   89.9574   13.0124 C.3     1  UNL1        0.2460
     20 F          62.9272   89.6478   11.5482 F       1  UNL1       -0.2293
     21 N          63.5400   85.3544   14.6322 N.am    1  UNL1       -0.2791
     22 C          62.9073   84.9899   13.3219 C.2     1  UNL1        0.2688
     23 O          62.2974   86.0562   12.4612 O.2     1  UNL1       -0.2681
     24 H          63.9403   84.6545   15.1971 H       1  UNL1        0.1552
     25 C          62.8845   83.5590   12.8724 C.ar    1  UNL1        0.1541
     26 C          63.2697   83.2086   11.4657 C.ar    1  UNL1        0.1258
     27 N          63.2469   81.7777   11.0162 N.ar    1  UNL1       -0.2070
     28 C          62.8389   80.6973   11.9733 C.ar    1  UNL1        0.2469
     29 C          62.4536   81.0476   13.3800 C.ar    1  UNL1        0.1566
     30 N          62.4764   82.4786   13.8296 N.ar    1  UNL1       -0.2328
     31 O          62.8161   79.2664   11.5238 O.3     1  UNL1       -0.4265
     32 C          63.0454   78.9300   10.0801 C.3     1  UNL1        0.4044
     33 F          62.1064   79.4477    9.0311 F       1  UNL1       -0.1809
@<TRIPOS>BOND
     1     8     9    1
     2     9    10    2
     3    10    11    1
     4    11    19    1
     5    19    20    1
     6    11     1    1
     7     1     2   ar
     8     2     3   ar
     9     3    21    1
    10    21    22   am
    11    22    23    2
    12    22    25    1
    13    25    26   ar
    14    26    27   ar
    15    27    28   ar
    16    28    31    1
    17    31    32    1
    18    32    33    1
    19    28    29   ar
    20    29    30   ar
    21     3     4   ar
    22     4     5   ar
    23     5     6   ar
    24     6     7    1
    25    11    12    1
    26    12    13    1
    27    13    14    1
    28    14    15    1
    29    14    16    1
    30    14     9    1
    31     6     1   ar
    32    30    25   ar
    33     8    17    1
    34     8    18    1
    35    21    24    1
@<TRIPOS>MOLECULE
*****
 33 35 0 0 0
SMALL
GASTEIGER

@<TRIPOS>ATOM
      1 C          64.2895   89.7571   14.6062 C.ar    1  UNL1        0.0531
      2 C          64.2611   88.3339   14.1332 C.ar    1  UNL1        0.0167
      3 C          63.7109   87.2588   15.0228 C.ar    1  UNL1        0.0505
      4 C          63.1890   87.6068   16.3854 C.ar    1  UNL1        0.0170
      5 C          63.2174   89.0300   16.8584 C.ar    1  UNL1        0.0307
      6 C          63.7677   90.1051   15.9688 C.ar    1  UNL1        0.1402
      7 F          63.7961   91.5284   16.4418 F       1  UNL1       -0.2044
      8 N          62.3893   90.4041   10.6245 N.pl3   1  UNL1       -0.2456
      9 C          63.4955   90.9219   11.4952 C.2     1  UNL1        0.3505
     10 N          63.7336   90.3144   12.8459 N.2     1  UNL1       -0.0663
     11 C          64.8398   90.8322   13.7166 C.3     1  UNL1        0.2279
     12 C          65.7079   91.9574   13.2368 C.3     1  UNL1        0.0626
     13 C          65.4697   92.5649   11.8861 C.3     1  UNL1        0.0838
     14 C          64.3635   92.0471   11.0154 C.3     1  UNL1        0.3553
     15 F          64.9138   93.1222   10.1258 F       1  UNL1       -0.1914
     16 F          63.4485   91.9027    9.8356 F       1  UNL1       -0.1914
     17 H          61.8195   89.6656   10.9395 H       1  UNL1        0.2883
     18 H          62.2330   90.8028    9.7380 H       1  UNL1        0.2883
     19 C          65.7549   90.9766   14.8964 C.3     1  UNL1        0.2460
     20 F          67.2414   90.9198   14.7039 F       1  UNL1       -0.2293
     21 N          63.6824   85.8356   14.5498 N.am    1  UNL1       -0.2791
     22 C          63.1281   85.5063   13.1955 C.2     1  UNL1        0.2688
     23 O          62.6022   86.6001   12.3141 O.2     1  UNL1       -0.2681
     24 H          64.0276   85.1176   15.1283 H       1  UNL1        0.1552
     25 C          63.0997   84.0830   12.7226 C.ar    1  UNL1        0.1541
     26 C          63.6626   83.7281   11.3782 C.ar    1  UNL1        0.1258
     27 N          63.6342   82.3049   10.9052 N.ar    1  UNL1       -0.2070
     28 C          63.0429   81.2367   11.7766 C.ar    1  UNL1        0.2469
     29 C          62.4800   81.5916   13.1209 C.ar    1  UNL1        0.1566
     30 N          62.5084   83.0148   13.5939 N.ar    1  UNL1       -0.2328
     31 O          63.0145   79.8135   11.3036 O.3     1  UNL1       -0.4265
     32 C          62.6592   79.5033    9.8797 C.3     1  UNL1        0.4044
     33 F          63.6641   78.8434    8.9826 F       1  UNL1       -0.1809
@<TRIPOS>BOND
     1     8     9    1
     2     9    10    2
     3    10    11    1
     4    11    19    1
     5    19    20    1
     6    11     1    1
     7     1     2   ar
     8     2     3   ar
     9     3    21    1
    10    21    22   am
    11    22    23    2
    12    22    25    1
    13    25    26   ar
    14    26    27   ar
    15    27    28   ar
    16    28    31    1
    17    31    32    1
    18    32    33    1
    19    28    29   ar
    20    29    30   ar
    21     3     4   ar
    22     4     5   ar
    23     5     6   ar
    24     6     7    1
    25    11    12    1
    26    12    13    1
    27    13    14    1
    28    14    15    1
    29    14    16    1
    30    14     9    1
    31     6     1   ar
    32    30    25   ar
    33     8    17    1
    34     8    18    1
    35    21    24    1
@<TRIPOS>MOLECULE
*****
 33 35 0 0 0
SMALL
GASTEIGER

@<TRIPOS>ATOM
      1 C          64.8859   91.1692   14.8439 C.ar    1  UNL1        0.0531
      2 C          64.7874   89.8113   14.2141 C.ar    1  UNL1        0.0167
      3 C          63.9975   88.7281   14.8869 C.ar    1  UNL1        0.0505
      4 C          63.3062   89.0026   16.1895 C.ar    1  UNL1        0.0170
      5 C          63.4048   90.3604   16.8193 C.ar    1  UNL1        0.0307
      6 C          64.1946   91.4437   16.1465 C.ar    1  UNL1        0.1402
      7 F          64.2931   92.8015   16.7762 F       1  UNL1       -0.2044
      8 N          64.0535   92.0584   10.5543 N.pl3   1  UNL1       -0.2456
      9 C          64.9268   92.4906   11.6947 C.2     1  UNL1        0.3505
     10 N          64.8024   91.8202   13.0307 N.2     1  UNL1       -0.0663
     11 C          65.6757   92.2525   14.1710 C.3     1  UNL1        0.2279
     12 C          66.6736   93.3551   13.9754 C.3     1  UNL1        0.0626
     13 C          66.7980   94.0256   12.6394 C.3     1  UNL1        0.0838
     14 C          65.9247   93.5933   11.4990 C.3     1  UNL1        0.3553
     15 F          66.7145   94.6766   10.8262 F       1  UNL1       -0.1914
     16 F          65.3257   93.5373   10.1250 F       1  UNL1       -0.1914
     17 H          63.3986   91.3346   10.6827 H       1  UNL1        0.2883
     18 H          64.1352   92.4984    9.6774 H       1  UNL1        0.2883
     19 C          66.2747   92.3084   15.5451 C.3     1  UNL1        0.2460
     20 F          67.2435   93.3982   15.8970 F       1  UNL1       -0.2293
     21 N          63.8990   87.3702   14.2572 N.am    1  UNL1       -0.2791
     22 C          63.6839   86.1592   15.1156 C.2     1  UNL1        0.2688
     23 O          63.5673   86.3059   16.6038 O.2     1  UNL1       -0.2681
     24 H          63.9755   87.2739   13.2804 H       1  UNL1        0.1552
     25 C          63.5854   84.8013   14.4858 C.ar    1  UNL1        0.1541
     26 C          64.0014   83.5845   15.2580 C.ar    1  UNL1        0.1258
     27 N          63.9029   82.2267   14.6282 N.ar    1  UNL1       -0.2070
     28 C          63.3883   82.0857   13.2263 C.ar    1  UNL1        0.2469
     29 C          62.9723   83.3025   12.4541 C.ar    1  UNL1        0.1566
     30 N          63.0709   84.6604   13.0839 N.ar    1  UNL1       -0.2328
     31 O          63.2898   80.7279   12.5965 O.3     1  UNL1       -0.4265
     32 C          62.2657   79.7470   13.0853 C.3     1  UNL1        0.4044
     33 F          61.0797   80.2281   13.8677 F       1  UNL1       -0.1809
@<TRIPOS>BOND
     1     8     9    1
     2     9    10    2
     3    10    11    1
     4    11    19    1
     5    19    20    1
     6    11     1    1
     7     1     2   ar
     8     2     3   ar
     9     3    21    1
    10    21    22   am
    11    22    23    2
    12    22    25    1
    13    25    26   ar
    14    26    27   ar
    15    27    28   ar
    16    28    31    1
    17    31    32    1
    18    32    33    1
    19    28    29   ar
    20    29    30   ar
    21     3     4   ar
    22     4     5   ar
    23     5     6   ar
    24     6     7    1
    25    11    12    1
    26    12    13    1
    27    13    14    1
    28    14    15    1
    29    14    16    1
    30    14     9    1
    31     6     1   ar
    32    30    25   ar
    33     8    17    1
    34     8    18    1
    35    21    24    1
@<TRIPOS>MOLECULE
*****
 33 35 0 0 0
SMALL
GASTEIGER

@<TRIPOS>ATOM
      1 C          63.2821   83.8850   12.6974 C.ar    1  UNL1        0.0531
      2 C          62.5673   84.7983   11.7460 C.ar    1  UNL1        0.0167
      3 C          62.8089   84.6819   10.2702 C.ar    1  UNL1        0.0505
      4 C          63.7653   83.6523    9.7456 C.ar    1  UNL1        0.0170
      5 C          64.4801   82.7390   10.6970 C.ar    1  UNL1        0.0307
      6 C          64.2385   82.8554   12.1728 C.ar    1  UNL1        0.1402
      7 F          64.9533   81.9421   13.1241 F       1  UNL1       -0.2044
      8 N          64.2653   87.7368   14.7174 N.pl3   1  UNL1       -0.2456
      9 C          63.7234   86.3672   15.0015 C.2     1  UNL1        0.3505
     10 N          63.5823   85.3710   13.8891 N.2     1  UNL1       -0.0663
     11 C          63.0404   84.0014   14.1732 C.3     1  UNL1        0.2279
     12 C          62.6398   83.6281   15.5696 C.3     1  UNL1        0.0626
     13 C          62.7809   84.6244   16.6820 C.3     1  UNL1        0.0838
     14 C          63.3228   85.9940   16.3979 C.3     1  UNL1        0.3553
     15 F          63.0811   86.1104   17.8737 F       1  UNL1       -0.1914
     16 F          63.7807   87.4039   16.6265 F       1  UNL1       -0.1914
     17 H          64.5282   87.9818   13.8009 H       1  UNL1        0.2883
     18 H          64.3579   88.3907   15.4475 H       1  UNL1        0.2883
     19 C          62.5825   82.5914   13.9446 C.3     1  UNL1        0.2460
     20 F          61.3300   82.0936   14.6030 F       1  UNL1       -0.2293
     21 N          62.0941   85.5952    9.3189 N.am    1  UNL1       -0.2791
     22 C          61.1297   86.6177    9.8425 C.2     1  UNL1        0.2688
     23 O          60.8801   86.7270   11.3176 O.2     1  UNL1       -0.2681
     24 H          62.2579   85.5234    8.3507 H       1  UNL1        0.1552
     25 C          60.4149   87.5310    8.8912 C.ar    1  UNL1        0.1541
     26 C          59.3918   86.9763    7.9449 C.ar    1  UNL1        0.1258
     27 N          58.6769   87.8895    6.9936 N.ar    1  UNL1       -0.2070
     28 C          58.9853   89.3575    6.9886 C.ar    1  UNL1        0.2469
     29 C          60.0084   89.9122    7.9349 C.ar    1  UNL1        0.1566
     30 N          60.7232   88.9990    8.8862 N.ar    1  UNL1       -0.2328
     31 O          58.2705   90.2708    6.0373 O.3     1  UNL1       -0.4265
     32 C          59.0538   91.1998    5.1580 C.3     1  UNL1        0.4044
     33 F          58.3694   91.9309    4.0412 F       1  UNL1       -0.1809
@<TRIPOS>BOND
     1     8     9    1
     2     9    10    2
     3    10    11    1
     4    11    19    1
     5    19    20    1
     6    11     1    1
     7     1     2   ar
     8     2     3   ar
     9     3    21    1
    10    21    22   am
    11    22    23    2
    12    22    25    1
    13    25    26   ar
    14    26    27   ar
    15    27    28   ar
    16    28    31    1
    17    31    32    1
    18    32    33    1
    19    28    29   ar
    20    29    30   ar
    21     3     4   ar
    22     4     5   ar
    23     5     6   ar
    24     6     7    1
    25    11    12    1
    26    12    13    1
    27    13    14    1
    28    14    15    1
    29    14    16    1
    30    14     9    1
    31     6     1   ar
    32    30    25   ar
    33     8    17    1
    34     8    18    1
    35    21    24    1
@<TRIPOS>MOLECULE
*****
 33 35 0 0 0
SMALL
GASTEIGER

@<TRIPOS>ATOM
      1 C          63.6519   85.2827   14.6689 C.ar    1  UNL1        0.0531
      2 C          64.2822   86.5871   14.2796 C.ar    1  UNL1        0.0167
      3 C          64.1084   87.7942   15.1529 C.ar    1  UNL1        0.0505
      4 C          63.3044   87.6971   16.4155 C.ar    1  UNL1        0.0170
      5 C          62.6741   86.3927   16.8048 C.ar    1  UNL1        0.0307
      6 C          62.8479   85.1856   15.9315 C.ar    1  UNL1        0.1402
      7 F          62.2177   83.8813   16.3208 F       1  UNL1       -0.2044
      8 N          62.5489   85.5970   10.3598 N.pl3   1  UNL1       -0.2456
      9 C          63.0879   84.6233   11.3655 C.2     1  UNL1        0.3505
     10 N          63.2868   85.0493   12.7899 N.2     1  UNL1       -0.0663
     11 C          63.8257   84.0756   13.7957 C.3     1  UNL1        0.2279
     12 C          64.1657   82.6759   13.3770 C.3     1  UNL1        0.0626
     13 C          63.9668   82.2500   11.9526 C.3     1  UNL1        0.0838
     14 C          63.4279   83.2237   10.9469 C.3     1  UNL1        0.3553
     15 F          63.6017   82.0165   10.0736 F       1  UNL1       -0.1914
     16 F          62.9493   83.7781    9.6378 F       1  UNL1       -0.1914
     17 H          62.3258   86.5157   10.6346 H       1  UNL1        0.2883
     18 H          62.4184   85.3174    9.4249 H       1  UNL1        0.2883
     19 C          64.3043   83.5212   15.1047 C.3     1  UNL1        0.2460
     20 F          64.2814   82.0408   15.3454 F       1  UNL1       -0.2293
     21 N          64.7386   89.0985   14.7636 N.am    1  UNL1       -0.2791
     22 C          64.1696   89.8972   13.6286 C.2     1  UNL1        0.2688
     23 O          62.9703   89.3917   12.8829 O.2     1  UNL1       -0.2681
     24 H          65.5258   89.4304   15.2530 H       1  UNL1        0.1552
     25 C          64.7999   91.2016   13.2393 C.ar    1  UNL1        0.1541
     26 C          64.5679   91.7673   11.8696 C.ar    1  UNL1        0.1258
     27 N          65.1981   93.0716   11.4803 N.ar    1  UNL1       -0.2070
     28 C          66.0603   93.8101   12.4607 C.ar    1  UNL1        0.2469
     29 C          66.2923   93.2444   13.8304 C.ar    1  UNL1        0.1566
     30 N          65.6621   91.9401   14.2197 N.ar    1  UNL1       -0.2328
     31 O          66.6906   95.1145   12.0713 O.3     1  UNL1       -0.4265
     32 C          66.2299   95.8311   10.8368 C.3     1  UNL1        0.4044
     33 F          67.2285   96.2658    9.8052 F       1  UNL1       -0.1809
@<TRIPOS>BOND
     1     8     9    1
     2     9    10    2
     3    10    11    1
     4    11    19    1
     5    19    20    1
     6    11     1    1
     7     1     2   ar
     8     2     3   ar
     9     3    21    1
    10    21    22   am
    11    22    23    2
    12    22    25    1
    13    25    26   ar
    14    26    27   ar
    15    27    28   ar
    16    28    31    1
    17    31    32    1
    18    32    33    1
    19    28    29   ar
    20    29    30   ar
    21     3     4   ar
    22     4     5   ar
    23     5     6   ar
    24     6     7    1
    25    11    12    1
    26    12    13    1
    27    13    14    1
    28    14    15    1
    29    14    16    1
    30    14     9    1
    31     6     1   ar
    32    30    25   ar
    33     8    17    1
    34     8    18    1
    35    21    24    1
@<TRIPOS>MOLECULE
*****
 33 35 0 0 0
SMALL
GASTEIGER

@<TRIPOS>ATOM
      1 C          63.1249   84.7045   12.1716 C.ar    1  UNL1        0.0531
      2 C          63.7614   85.9418   12.7317 C.ar    1  UNL1        0.0167
      3 C          63.8180   86.1499   14.2161 C.ar    1  UNL1        0.0505
      4 C          63.2380   85.1207   15.1405 C.ar    1  UNL1        0.0170
      5 C          62.6014   83.8833   14.5803 C.ar    1  UNL1        0.0307
      6 C          62.5449   83.6753   13.0959 C.ar    1  UNL1        0.1402
      7 F          61.9083   82.4379   12.5357 F       1  UNL1       -0.2044
      8 N          60.3508   87.2399    9.7715 N.pl3   1  UNL1       -0.2456
      9 C          61.3565   86.1367    9.6246 C.2     1  UNL1        0.3505
     10 N          62.0626   85.5996   10.8340 N.2     1  UNL1       -0.0663
     11 C          63.0683   84.4964   10.6871 C.3     1  UNL1        0.2279
     12 C          63.3679   83.9303    9.3308 C.3     1  UNL1        0.0626
     13 C          62.6617   84.4674    8.1213 C.3     1  UNL1        0.0838
     14 C          61.6560   85.5706    8.2682 C.3     1  UNL1        0.3553
     15 F          61.5995   85.3625    6.7838 F       1  UNL1       -0.1914
     16 F          60.6307   86.6015    7.8995 F       1  UNL1       -0.1914
     17 H          60.1542   87.6114   10.6618 H       1  UNL1        0.2883
     18 H          59.8874   87.5924    8.9777 H       1  UNL1        0.2883
     19 C          64.0936   83.4655   11.0558 C.3     1  UNL1        0.2460
     20 F          64.2787   82.2507   10.1955 F       1  UNL1       -0.2293
     21 N          64.4546   87.3873   14.7763 N.am    1  UNL1       -0.2791
     22 C          64.1997   88.7185   14.1338 C.2     1  UNL1        0.2688
     23 O          63.3082   88.8124   12.9312 O.2     1  UNL1       -0.2681
     24 H          65.0397   87.3256   15.5657 H       1  UNL1        0.1552
     25 C          64.8362   89.9558   14.6940 C.ar    1  UNL1        0.1541
     26 C          64.0792   90.8164   15.6616 C.ar    1  UNL1        0.1258
     27 N          64.7158   92.0538   16.2218 N.ar    1  UNL1       -0.2070
     28 C          66.1093   92.4305   15.8143 C.ar    1  UNL1        0.2469
     29 C          66.8664   91.5699   14.8467 C.ar    1  UNL1        0.1566
     30 N          66.2298   90.3325   14.2865 N.ar    1  UNL1       -0.2328
     31 O          66.7459   93.6678   16.3745 O.3     1  UNL1       -0.4265
     32 C          68.1741   93.9899   16.0483 C.3     1  UNL1        0.4044
     33 F          69.2611   93.0170   16.3975 F       1  UNL1       -0.1809
@<TRIPOS>BOND
     1     8     9    1
     2     9    10    2
     3    10    11    1
     4    11    19    1
     5    19    20    1
     6    11     1    1
     7     1     2   ar
     8     2     3   ar
     9     3    21    1
    10    21    22   am
    11    22    23    2
    12    22    25    1
    13    25    26   ar
    14    26    27   ar
    15    27    28   ar
    16    28    31    1
    17    31    32    1
    18    32    33    1
    19    28    29   ar
    20    29    30   ar
    21     3     4   ar
    22     4     5   ar
    23     5     6   ar
    24     6     7    1
    25    11    12    1
    26    12    13    1
    27    13    14    1
    28    14    15    1
    29    14    16    1
    30    14     9    1
    31     6     1   ar
    32    30    25   ar
    33     8    17    1
    34     8    18    1
    35    21    24    1
@<TRIPOS>MOLECULE
*****
 33 35 0 0 0
SMALL
GASTEIGER

@<TRIPOS>ATOM
      1 C          63.1755   84.8805   13.8624 C.ar    1  UNL1        0.0531
      2 C          63.8162   86.2174   13.6339 C.ar    1  UNL1        0.0167
      3 C          64.0432   87.1474   14.7887 C.ar    1  UNL1        0.0505
      4 C          63.6296   86.7406   16.1720 C.ar    1  UNL1        0.0170
      5 C          62.9889   85.4037   16.4004 C.ar    1  UNL1        0.0307
      6 C          62.7619   84.4737   15.2457 C.ar    1  UNL1        0.1402
      7 F          62.1212   83.1367   15.4741 F       1  UNL1       -0.2044
      8 N          63.6754   80.4997   14.5281 N.pl3   1  UNL1       -0.2456
      9 C          63.3261   81.4922   13.4590 C.2     1  UNL1        0.3505
     10 N          63.2978   82.9579   13.7767 N.2     1  UNL1       -0.0663
     11 C          62.9485   83.9504   12.7076 C.3     1  UNL1        0.2279
     12 C          62.6276   83.4773   11.3209 C.3     1  UNL1        0.0626
     13 C          62.6559   82.0116   11.0032 C.3     1  UNL1        0.0838
     14 C          63.0052   81.0191   12.0723 C.3     1  UNL1        0.3553
     15 F          62.7782   80.0891   10.9175 F       1  UNL1       -0.1914
     16 F          63.2756   79.7036   12.7402 F       1  UNL1       -0.1914
     17 H          63.8860   80.8103   15.4383 H       1  UNL1        0.2883
     18 H          63.6940   79.5377   14.3196 H       1  UNL1        0.2883
     19 C          62.6781   85.2660   12.0397 C.3     1  UNL1        0.2460
     20 F          62.5351   85.3343   10.5480 F       1  UNL1       -0.2293
     21 N          64.6839   88.4844   14.5602 N.am    1  UNL1       -0.2791
     22 C          64.0476   89.4713   13.6270 C.2     1  UNL1        0.2688
     23 O          62.7706   89.1214   12.9222 O.2     1  UNL1       -0.2681
     24 H          65.5220   88.7141   15.0228 H       1  UNL1        0.1552
     25 C          64.6883   90.8082   13.3985 C.ar    1  UNL1        0.1541
     26 C          65.4228   91.4886   14.5155 C.ar    1  UNL1        0.1258
     27 N          66.0634   92.8255   14.2870 N.ar    1  UNL1       -0.2070
     28 C          65.9696   93.4820   12.9415 C.ar    1  UNL1        0.2469
     29 C          65.2351   92.8017   11.8246 C.ar    1  UNL1        0.1566
     30 N          64.5945   91.4647   12.0530 N.ar    1  UNL1       -0.2328
     31 O          66.6103   94.8189   12.7131 O.3     1  UNL1       -0.4265
     32 C          66.2190   95.6447   11.5236 C.3     1  UNL1        0.4044
     33 F          67.2387   95.9818   10.4763 F       1  UNL1       -0.1809
@<TRIPOS>BOND
     1     8     9    1
     2     9    10    2
     3    10    11    1
     4    11    19    1
     5    19    20    1
     6    11     1    1
     7     1     2   ar
     8     2     3   ar
     9     3    21    1
    10    21    22   am
    11    22    23    2
    12    22    25    1
    13    25    26   ar
    14    26    27   ar
    15    27    28   ar
    16    28    31    1
    17    31    32    1
    18    32    33    1
    19    28    29   ar
    20    29    30   ar
    21     3     4   ar
    22     4     5   ar
    23     5     6   ar
    24     6     7    1
    25    11    12    1
    26    12    13    1
    27    13    14    1
    28    14    15    1
    29    14    16    1
    30    14     9    1
    31     6     1   ar
    32    30    25   ar
    33     8    17    1
    34     8    18    1
    35    21    24    1
