@<TRIPOS>MOLECULE
*****
 24 27 0 0 0
SMALL
GASTEIGER

@<TRIPOS>ATOM
      1 C          66.1452   93.5092   11.5059 C.2     1  UNL1        0.1244
      2 C          65.1818   93.0364   10.4579 C.2     1  UNL1        0.0624
      3 C          64.1984   91.9501   10.7786 C.2     1  UNL1        0.1442
      4 F          63.2350   91.4773    9.7306 F       1  UNL1       -0.2040
      5 C          64.1783   91.3367   12.1473 C.2     1  UNL1        0.0493
      6 C          63.3295   90.2573   12.7511 C.2     1  UNL1        0.0980
      7 C          63.7683   90.0630   14.1723 C.2     1  UNL1        0.1050
      8 N          64.8883   91.0224   14.4468 N.2     1  UNL1       -0.2474
      9 C          65.1417   91.8095   13.1953 C.2     1  UNL1        0.0690
     10 C          66.1251   92.8958   12.8746 C.3     1  UNL1        0.1097
     11 C          67.1968   95.1596    9.7971 C.3     1  UNL1        0.2520
     12 O          67.1287   94.5954   11.1853 O.2     1  UNL1       -0.4752
     13 C          62.2343   89.5044   12.0558 C.2     1  UNL1        0.3428
     14 O          60.8292   89.5735   12.5762 O.2     1  UNL1       -0.2448
     15 O          62.5441   88.6823   10.8400 O.3     1  UNL1       -0.4454
     16 C          62.1155   87.2462   10.7763 C.3     1  UNL1        0.2087
     17 C          61.4766   86.7087    9.5302 C.3     1  UNL1        0.0445
     18 C          62.2527   85.8038    8.6198 C.3     1  UNL1        0.0210
     19 C          61.6137   85.2663    7.3737 C.3     1  UNL1        0.0722
     20 N          60.1986   85.6338    7.0380 N.3     1  UNL1       -0.2727
     21 C          59.4226   86.5387    7.9484 C.3     1  UNL1        0.0722
     22 C          60.0616   87.0762    9.1945 C.3     1  UNL1        0.0210
     23 C          60.5062   85.9529    7.7318 C.3     1  UNL1        0.0722
     24 C          61.0839   86.4390    8.8586 C.3     1  UNL1        0.0210
@<TRIPOS>BOND
     1    11    12    1
     2    12     1    1
     3     1     2    2
     4     2     3    1
     5     3     4    1
     6     3     5    2
     7     5     6    1
     8     6    13    1
     9    13    14    2
    10    13    15    1
    11    15    16    1
    12    16    17    1
    13    17    18    1
    14    18    19    1
    15    19    20    1
    16    20    21    1
    17    21    22    1
    18    20    23    1
    19    23    24    1
    20     6     7    2
    21     7     8    1
    22     8     9    2
    23     9    10    1
    24    10     1    1
    25     9     5    1
    26    22    17    1
    27    24    17    1
@<TRIPOS>MOLECULE
*****
 24 27 0 0 0
SMALL
GASTEIGER

@<TRIPOS>ATOM
      1 C          65.8327   92.1468   13.8299 C.2     1  UNL1        0.1244
      2 C          65.2667   90.9178   14.4774 C.2     1  UNL1        0.0624
      3 C          64.2520   90.0864   13.7499 C.2     1  UNL1        0.1442
      4 F          63.6861   88.8574   14.3974 F       1  UNL1       -0.2040
      5 C          63.8034   90.4839   12.3749 C.2     1  UNL1        0.0493
      6 C          62.8249   89.8659   11.4206 C.2     1  UNL1        0.0980
      7 C          62.7862   90.7129   10.1832 C.2     1  UNL1        0.1050
      8 N          63.7406   91.8544   10.3729 N.2     1  UNL1       -0.2474
      9 C          64.3693   91.7129   11.7274 C.2     1  UNL1        0.0690
     10 C          65.3839   92.5443   12.4548 C.3     1  UNL1        0.1097
     11 C          67.0426   92.8009   16.0339 C.3     1  UNL1        0.2520
     12 O          66.8473   92.9782   14.5573 O.2     1  UNL1       -0.4752
     13 C          62.0256   88.6196   11.6613 C.2     1  UNL1        0.3428
     14 O          60.5268   88.6782   11.6612 O.2     1  UNL1       -0.2448
     15 O          62.7252   87.3148   11.9022 O.3     1  UNL1       -0.4454
     16 C          62.0621   86.0258   11.5164 C.3     1  UNL1        0.2087
     17 C          62.8683   84.7638   11.4312 C.3     1  UNL1        0.0445
     18 C          63.3426   84.2653   10.0983 C.3     1  UNL1        0.0210
     19 C          64.1488   83.0033   10.0132 C.3     1  UNL1        0.0722
     20 N          64.4808   82.2398   11.2609 N.3     1  UNL1       -0.2727
     21 C          64.0065   82.7383   12.5938 C.3     1  UNL1        0.0722
     22 C          63.2003   84.0003   12.6789 C.3     1  UNL1        0.0210
     23 C          64.0363   82.9260   11.3576 C.3     1  UNL1        0.0722
     24 C          63.3073   84.0672   11.4347 C.3     1  UNL1        0.0210
@<TRIPOS>BOND
     1    11    12    1
     2    12     1    1
     3     1     2    2
     4     2     3    1
     5     3     4    1
     6     3     5    2
     7     5     6    1
     8     6    13    1
     9    13    14    2
    10    13    15    1
    11    15    16    1
    12    16    17    1
    13    17    18    1
    14    18    19    1
    15    19    20    1
    16    20    21    1
    17    21    22    1
    18    20    23    1
    19    23    24    1
    20     6     7    2
    21     7     8    1
    22     8     9    2
    23     9    10    1
    24    10     1    1
    25     9     5    1
    26    22    17    1
    27    24    17    1
@<TRIPOS>MOLECULE
*****
 24 27 0 0 0
SMALL
GASTEIGER

@<TRIPOS>ATOM
      1 C          66.7281   92.8074   14.4394 C.2     1  UNL1        0.1244
      2 C          65.9830   91.6092   14.9482 C.2     1  UNL1        0.0624
      3 C          64.9590   90.9388   14.0809 C.2     1  UNL1        0.1442
      4 F          64.2138   89.7405   14.5897 F       1  UNL1       -0.2040
      5 C          64.6803   91.4667   12.7048 C.2     1  UNL1        0.0493
      6 C          63.7348   91.0182   11.6302 C.2     1  UNL1        0.0980
      7 C          63.8955   91.9392   10.4572 C.2     1  UNL1        0.1050
      8 N          64.9405   92.9570   10.8069 N.2     1  UNL1       -0.2474
      9 C          65.4255   92.6649   12.1960 C.2     1  UNL1        0.0690
     10 C          66.4494   93.3353   13.0633 C.3     1  UNL1        0.1097
     11 C          68.7713   92.6545   16.0368 C.3     1  UNL1        0.2520
     12 O          67.7520   93.4778   15.3067 O.2     1  UNL1       -0.4752
     13 C          62.7936   89.8531   11.7138 C.2     1  UNL1        0.3428
     14 O          61.9168   89.6823   12.9188 O.2     1  UNL1       -0.2448
     15 O          62.7293   88.8589   10.5925 O.3     1  UNL1       -0.4454
     16 C          61.9179   87.6066   10.7460 C.3     1  UNL1        0.2087
     17 C          61.3134   86.9521    9.5393 C.3     1  UNL1        0.0445
     18 C          62.1253   85.9930    8.7204 C.3     1  UNL1        0.0210
     19 C          61.5207   85.3385    7.5138 C.3     1  UNL1        0.0722
     20 N          60.1040   85.6432    7.1260 N.3     1  UNL1       -0.2727
     21 C          59.2921   86.6024    7.9450 C.3     1  UNL1        0.0722
     22 C          59.8967   87.2569    9.1516 C.3     1  UNL1        0.0210
     23 C          60.3921   86.0263    7.7955 C.3     1  UNL1        0.0722
     24 C          60.9387   86.6181    8.8866 C.3     1  UNL1        0.0210
@<TRIPOS>BOND
     1    11    12    1
     2    12     1    1
     3     1     2    2
     4     2     3    1
     5     3     4    1
     6     3     5    2
     7     5     6    1
     8     6    13    1
     9    13    14    2
    10    13    15    1
    11    15    16    1
    12    16    17    1
    13    17    18    1
    14    18    19    1
    15    19    20    1
    16    20    21    1
    17    21    22    1
    18    20    23    1
    19    23    24    1
    20     6     7    2
    21     7     8    1
    22     8     9    2
    23     9    10    1
    24    10     1    1
    25     9     5    1
    26    22    17    1
    27    24    17    1
@<TRIPOS>MOLECULE
*****
 24 27 0 0 0
SMALL
GASTEIGER

@<TRIPOS>ATOM
      1 C          66.2625   93.1873   11.8775 C.2     1  UNL1        0.1244
      2 C          66.5393   92.9315   13.3294 C.2     1  UNL1        0.0624
      3 C          65.6916   91.9588   14.0945 C.2     1  UNL1        0.1442
      4 F          65.9684   91.7030   15.5464 F       1  UNL1       -0.2040
      5 C          64.5672   91.2419   13.4077 C.2     1  UNL1        0.0493
      6 C          63.5699   90.2351   13.8993 C.2     1  UNL1        0.0980
      7 C          62.6767   89.8687   12.7513 C.2     1  UNL1        0.1050
      8 N          63.1220   90.6490   11.5501 N.2     1  UNL1       -0.2474
      9 C          64.2904   91.4977   11.9558 C.2     1  UNL1        0.0690
     10 C          65.1381   92.4704   11.1907 C.3     1  UNL1        0.1097
     11 C          67.2873   93.9975    9.6319 C.3     1  UNL1        0.2520
     12 O          67.1102   94.1600   11.1124 O.2     1  UNL1       -0.4752
     13 C          63.4813   89.6904   15.2941 C.2     1  UNL1        0.3428
     14 O          63.3379   90.6267   16.4572 O.2     1  UNL1       -0.2448
     15 O          63.5361   88.2095   15.5258 O.3     1  UNL1       -0.4454
     16 C          64.4961   87.3629   14.7437 C.3     1  UNL1        0.2087
     17 C          64.0996   85.9817   14.3135 C.3     1  UNL1        0.0445
     18 C          64.4409   84.8012   15.1737 C.3     1  UNL1        0.0210
     19 C          64.0443   83.4201   14.7435 C.3     1  UNL1        0.0722
     20 N          63.3064   83.2194   13.4531 N.3     1  UNL1       -0.2727
     21 C          62.9651   84.3999   12.5928 C.3     1  UNL1        0.0722
     22 C          63.3617   85.7810   13.0231 C.3     1  UNL1        0.0210
     23 C          63.5028   83.9951   13.6471 C.3     1  UNL1        0.0722
     24 C          63.8613   85.2440   14.0360 C.3     1  UNL1        0.0210
@<TRIPOS>BOND
     1    11    12    1
     2    12     1    1
     3     1     2    2
     4     2     3    1
     5     3     4    1
     6     3     5    2
     7     5     6    1
     8     6    13    1
     9    13    14    2
    10    13    15    1
    11    15    16    1
    12    16    17    1
    13    17    18    1
    14    18    19    1
    15    19    20    1
    16    20    21    1
    17    21    22    1
    18    20    23    1
    19    23    24    1
    20     6     7    2
    21     7     8    1
    22     8     9    2
    23     9    10    1
    24    10     1    1
    25     9     5    1
    26    22    17    1
    27    24    17    1
@<TRIPOS>MOLECULE
*****
 24 27 0 0 0
SMALL
GASTEIGER

@<TRIPOS>ATOM
      1 C          61.1027   87.2551    9.5154 C.2     1  UNL1        0.1244
      2 C          61.1592   88.7504    9.4115 C.2     1  UNL1        0.0624
      3 C          61.9184   89.5450   10.4325 C.2     1  UNL1        0.1442
      4 F          61.9748   91.0403   10.3286 F       1  UNL1       -0.2040
      5 C          62.6211   88.8443   11.5572 C.2     1  UNL1        0.0493
      6 C          63.4413   89.3579   12.7033 C.2     1  UNL1        0.0980
      7 C          63.8918   88.1800   13.5155 C.2     1  UNL1        0.1050
      8 N          63.3500   86.9384   12.8714 N.2     1  UNL1       -0.2474
      9 C          62.5647   87.3489   11.6611 C.2     1  UNL1        0.0690
     10 C          61.8055   86.5543   10.6402 C.3     1  UNL1        0.1097
     11 C          59.0168   86.9521    7.9966 C.3     1  UNL1        0.2520
     12 O          60.3436   86.4605    8.4945 O.2     1  UNL1       -0.4752
     13 C          63.7558   90.7968   12.9873 C.2     1  UNL1        0.3428
     14 O          63.4614   91.3761   14.3392 O.2     1  UNL1       -0.2448
     15 O          64.3647   91.6563   11.9195 O.3     1  UNL1       -0.4454
     16 C          65.6349   92.4058   12.1934 C.3     1  UNL1        0.2087
     17 C          66.4067   93.0132   11.0597 C.3     1  UNL1        0.0445
     18 C          66.0959   94.4078   10.6029 C.3     1  UNL1        0.0210
     19 C          66.8678   95.0151    9.4692 C.3     1  UNL1        0.0722
     20 N          67.9504   94.2279    8.7922 N.3     1  UNL1       -0.2727
     21 C          68.2611   92.8333    9.2490 C.3     1  UNL1        0.0722
     22 C          67.4892   92.2260   10.3827 C.3     1  UNL1        0.0210
     23 C          67.5545   93.8529    9.4091 C.3     1  UNL1        0.0722
     24 C          66.8567   93.3036   10.4342 C.3     1  UNL1        0.0210
@<TRIPOS>BOND
     1    11    12    1
     2    12     1    1
     3     1     2    2
     4     2     3    1
     5     3     4    1
     6     3     5    2
     7     5     6    1
     8     6    13    1
     9    13    14    2
    10    13    15    1
    11    15    16    1
    12    16    17    1
    13    17    18    1
    14    18    19    1
    15    19    20    1
    16    20    21    1
    17    21    22    1
    18    20    23    1
    19    23    24    1
    20     6     7    2
    21     7     8    1
    22     8     9    2
    23     9    10    1
    24    10     1    1
    25     9     5    1
    26    22    17    1
    27    24    17    1
@<TRIPOS>MOLECULE
*****
 24 27 0 0 0
SMALL
GASTEIGER

@<TRIPOS>ATOM
      1 C          62.2189   85.8371    9.7581 C.2     1  UNL1        0.1244
      2 C          61.7535   85.9846   11.1764 C.2     1  UNL1        0.0624
      3 C          62.2322   85.0262   12.2264 C.2     1  UNL1        0.1442
      4 F          61.7668   85.1737   13.6447 F       1  UNL1       -0.2040
      5 C          63.1762   83.9203   11.8579 C.2     1  UNL1        0.0493
      6 C          63.8137   82.8324   12.6704 C.2     1  UNL1        0.0980
      7 C          64.6730   82.0125   11.7543 C.2     1  UNL1        0.1050
      8 N          64.5666   82.5937   10.3755 N.2     1  UNL1       -0.2474
      9 C          63.6416   83.7728   10.4396 C.2     1  UNL1        0.0690
     10 C          63.1630   84.7312    9.3897 C.3     1  UNL1        0.1097
     11 C          60.3255   86.7224    8.2150 C.3     1  UNL1        0.2520
     12 O          61.7402   86.7955    8.7082 O.2     1  UNL1       -0.4752
     13 C          63.6249   82.6044   14.1409 C.2     1  UNL1        0.3428
     14 O          62.6872   81.5361   14.6200 O.2     1  UNL1       -0.2448
     15 O          64.3738   83.4447   15.1324 O.3     1  UNL1       -0.4454
     16 C          64.8826   84.7987   14.7353 C.3     1  UNL1        0.2087
     17 C          64.2841   86.0327   15.3428 C.3     1  UNL1        0.0445
     18 C          63.5035   85.9370   16.6201 C.3     1  UNL1        0.0210
     19 C          62.9051   87.1710   17.2276 C.3     1  UNL1        0.0722
     20 N          63.0872   88.5007   16.5577 N.3     1  UNL1       -0.2727
     21 C          63.8677   88.5964   15.2804 C.3     1  UNL1        0.0722
     22 C          64.4662   87.3624   14.6729 C.3     1  UNL1        0.0210
     23 C          63.4337   87.8523   16.1871 C.3     1  UNL1        0.0722
     24 C          63.9749   86.7365   15.6378 C.3     1  UNL1        0.0210
@<TRIPOS>BOND
     1    11    12    1
     2    12     1    1
     3     1     2    2
     4     2     3    1
     5     3     4    1
     6     3     5    2
     7     5     6    1
     8     6    13    1
     9    13    14    2
    10    13    15    1
    11    15    16    1
    12    16    17    1
    13    17    18    1
    14    18    19    1
    15    19    20    1
    16    20    21    1
    17    21    22    1
    18    20    23    1
    19    23    24    1
    20     6     7    2
    21     7     8    1
    22     8     9    2
    23     9    10    1
    24    10     1    1
    25     9     5    1
    26    22    17    1
    27    24    17    1
@<TRIPOS>MOLECULE
*****
 24 27 0 0 0
SMALL
GASTEIGER

@<TRIPOS>ATOM
      1 C          63.9003   91.0078   12.6755 C.2     1  UNL1        0.1244
      2 C          64.1899   89.7310   13.4077 C.2     1  UNL1        0.0624
      3 C          63.6471   88.4311   12.8921 C.2     1  UNL1        0.1442
      4 F          63.9367   87.1544   13.6243 F       1  UNL1       -0.2040
      5 C          62.8148   88.4080   11.6445 C.2     1  UNL1        0.0493
      6 C          62.1493   87.2870   10.9025 C.2     1  UNL1        0.0980
      7 C          61.4484   87.8709    9.7118 C.2     1  UNL1        0.1050
      8 N          61.6807   89.3527    9.7179 N.2     1  UNL1       -0.2474
      9 C          62.5252   89.6847   10.9123 C.2     1  UNL1        0.0690
     10 C          63.0679   90.9846   11.4278 C.3     1  UNL1        0.1097
     11 C          65.6975   92.8824   12.6030 C.3     1  UNL1        0.2520
     12 O          64.4430   92.3076   13.1910 O.2     1  UNL1       -0.4752
     13 C          62.1794   85.8367   11.2843 C.2     1  UNL1        0.3428
     14 O          61.7784   85.4167   12.6674 O.2     1  UNL1       -0.2448
     15 O          62.6105   84.8063   10.2830 O.3     1  UNL1       -0.4454
     16 C          63.7359   83.8693   10.6081 C.3     1  UNL1        0.2087
     17 C          63.5922   82.8857   11.7313 C.3     1  UNL1        0.0445
     18 C          62.8765   81.5871   11.5041 C.3     1  UNL1        0.0210
     19 C          62.7328   80.6035   12.6274 C.3     1  UNL1        0.0722
     20 N          63.3047   80.9184   13.9778 N.3     1  UNL1       -0.2727
     21 C          64.0204   82.2169   14.2050 C.3     1  UNL1        0.0722
     22 C          64.1641   83.2005   13.0817 C.3     1  UNL1        0.0210
     23 C          63.4084   81.4885   13.3930 C.3     1  UNL1        0.0722
     24 C          63.5385   82.3781   12.3774 C.3     1  UNL1        0.0210
@<TRIPOS>BOND
     1    11    12    1
     2    12     1    1
     3     1     2    2
     4     2     3    1
     5     3     4    1
     6     3     5    2
     7     5     6    1
     8     6    13    1
     9    13    14    2
    10    13    15    1
    11    15    16    1
    12    16    17    1
    13    17    18    1
    14    18    19    1
    15    19    20    1
    16    20    21    1
    17    21    22    1
    18    20    23    1
    19    23    24    1
    20     6     7    2
    21     7     8    1
    22     8     9    2
    23     9    10    1
    24    10     1    1
    25     9     5    1
    26    22    17    1
    27    24    17    1
@<TRIPOS>MOLECULE
*****
 24 27 0 0 0
SMALL
GASTEIGER

@<TRIPOS>ATOM
      1 C          66.0542   93.7664   11.5212 C.2     1  UNL1        0.1244
      2 C          65.1393   93.1122   10.5287 C.2     1  UNL1        0.0624
      3 C          64.3556   91.8945   10.9203 C.2     1  UNL1        0.1442
      4 F          63.4408   91.2403    9.9278 F       1  UNL1       -0.2040
      5 C          64.4868   91.3312   12.3042 C.2     1  UNL1        0.0493
      6 C          63.8458   90.1512   12.9725 C.2     1  UNL1        0.0980
      7 C          64.3644   90.0761   14.3780 C.2     1  UNL1        0.1050
      8 N          65.3260   91.2097   14.5783 N.2     1  UNL1       -0.2474
      9 C          65.4016   91.9855   13.2967 C.2     1  UNL1        0.0690
     10 C          66.1853   93.2030   12.9052 C.3     1  UNL1        0.1097
     11 C          67.3150   95.1465    9.7169 C.3     1  UNL1        0.2520
     12 O          66.8379   94.9840   11.1297 O.2     1  UNL1       -0.4752
     13 C          62.8593   89.2112   12.3454 C.2     1  UNL1        0.3428
     14 O          61.6124   89.7484   11.7077 O.2     1  UNL1       -0.2448
     15 O          63.1197   87.7340   12.3558 O.3     1  UNL1       -0.4454
     16 C          62.3505   86.8302   11.4385 C.3     1  UNL1        0.2087
     17 C          62.7233   85.3816   11.3267 C.3     1  UNL1        0.0445
     18 C          63.2165   84.8327   10.0208 C.3     1  UNL1        0.0210
     19 C          63.5893   83.3840    9.9091 C.3     1  UNL1        0.0722
     20 N          63.4690   82.4844   11.1033 N.3     1  UNL1       -0.2727
     21 C          62.9758   83.0334   12.4092 C.3     1  UNL1        0.0722
     22 C          62.6030   84.4820   12.5209 C.3     1  UNL1        0.0210
     23 C          63.2528   83.2712   11.2130 C.3     1  UNL1        0.0722
     24 C          62.9157   84.5811   11.3141 C.3     1  UNL1        0.0210
@<TRIPOS>BOND
     1    11    12    1
     2    12     1    1
     3     1     2    2
     4     2     3    1
     5     3     4    1
     6     3     5    2
     7     5     6    1
     8     6    13    1
     9    13    14    2
    10    13    15    1
    11    15    16    1
    12    16    17    1
    13    17    18    1
    14    18    19    1
    15    19    20    1
    16    20    21    1
    17    21    22    1
    18    20    23    1
    19    23    24    1
    20     6     7    2
    21     7     8    1
    22     8     9    2
    23     9    10    1
    24    10     1    1
    25     9     5    1
    26    22    17    1
    27    24    17    1
@<TRIPOS>MOLECULE
*****
 24 27 0 0 0
SMALL
GASTEIGER

@<TRIPOS>ATOM
      1 C          66.8075   92.6731   14.0420 C.2     1  UNL1        0.1244
      2 C          66.3802   92.7848   12.6085 C.2     1  UNL1        0.0624
      3 C          65.1861   92.0195   12.1201 C.2     1  UNL1        0.1442
      4 F          64.7588   92.1312   10.6865 F       1  UNL1       -0.2040
      5 C          64.4193   91.1427   13.0651 C.2     1  UNL1        0.0493
      6 C          63.2105   90.2756   12.8729 C.2     1  UNL1        0.0980
      7 C          62.8907   89.6280   14.1875 C.2     1  UNL1        0.1050
      8 N          63.9019   90.0949   15.1923 N.2     1  UNL1       -0.2474
      9 C          64.8466   91.0311   14.4986 C.2     1  UNL1        0.0690
     10 C          66.0407   91.7962   14.9871 C.3     1  UNL1        0.1097
     11 C          68.7747   92.9444   15.7172 C.3     1  UNL1        0.2520
     12 O          68.0016   93.4383   14.5305 O.2     1  UNL1       -0.4752
     13 C          62.4543   90.0888   11.5910 C.2     1  UNL1        0.3428
     14 O          61.3666   91.0508   11.2149 O.2     1  UNL1       -0.2448
     15 O          62.7858   88.9401   10.6852 O.3     1  UNL1       -0.4454
     16 C          62.0574   87.6367   10.8294 C.3     1  UNL1        0.2087
     17 C          61.4135   87.0010    9.6330 C.3     1  UNL1        0.0445
     18 C          62.1932   86.0429    8.7821 C.3     1  UNL1        0.0210
     19 C          61.5493   85.4072    7.5858 C.3     1  UNL1        0.0722
     20 N          60.1256   85.7297    7.2404 N.3     1  UNL1       -0.2727
     21 C          59.3460   86.6878    8.0913 C.3     1  UNL1        0.0722
     22 C          59.9899   87.3235    9.2876 C.3     1  UNL1        0.0210
     23 C          60.4357   86.1028    7.9056 C.3     1  UNL1        0.0722
     24 C          61.0179   86.6776    8.9874 C.3     1  UNL1        0.0210
@<TRIPOS>BOND
     1    11    12    1
     2    12     1    1
     3     1     2    2
     4     2     3    1
     5     3     4    1
     6     3     5    2
     7     5     6    1
     8     6    13    1
     9    13    14    2
    10    13    15    1
    11    15    16    1
    12    16    17    1
    13    17    18    1
    14    18    19    1
    15    19    20    1
    16    20    21    1
    17    21    22    1
    18    20    23    1
    19    23    24    1
    20     6     7    2
    21     7     8    1
    22     8     9    2
    23     9    10    1
    24    10     1    1
    25     9     5    1
    26    22    17    1
    27    24    17    1
