@<TRIPOS>MOLECULE
*****
 30 34 0 0 0
SMALL
GASTEIGER

@<TRIPOS>ATOM
      1 N          62.6120   84.0033   12.1082 N.ar    1  UNL1       -0.2286
      2 C          61.6078   84.8312   11.3624 C.ar    1  UNL1        0.0990
      3 C          61.9722   86.2751   11.5426 C.ar    1  UNL1        0.0338
      4 C          63.2015   86.3395   12.3998 C.ar    1  UNL1        0.0981
      5 N          63.5969   84.9354   12.7493 N.ar    1  UNL1       -0.1680
      6 C          63.5658   87.7834   12.5800 C.3     1  UNL1        0.1414
      7 N          62.5617   88.6114   11.8342 N.am    1  UNL1       -0.2660
      8 C          62.5453   90.1086   11.7451 C.2     1  UNL1        0.2525
      9 O          61.4725   90.8015   10.9583 O.2     1  UNL1       -0.2698
     10 C          61.5767   87.6792   11.1931 C.3     1  UNL1        0.1236
     11 C          63.0409   79.3631    9.8094 C.3     1  UNL1        0.0521
     12 C          62.8428   80.1858   11.0479 C.ar    1  UNL1        0.0609
     13 C          62.8264   81.6831   10.9589 C.ar    1  UNL1        0.0339
     14 C          62.6283   82.5060   12.1973 C.ar    1  UNL1        0.0855
     15 C          62.4467   81.8316   13.5247 C.ar    1  UNL1        0.0398
     16 C          62.4630   80.3343   13.6137 C.ar    1  UNL1        0.1000
     17 N          62.6611   79.5114   12.3753 N.ar    1  UNL1       -0.2480
     18 C          63.6017   90.9130   12.4429 C.ar    1  UNL1        0.0881
     19 C          64.4974   91.8205   11.6528 C.ar    1  UNL1        0.0178
     20 C          65.5539   92.6249   12.3506 C.ar    1  UNL1        0.0688
     21 C          65.7146   92.5220   13.8383 C.ar    1  UNL1        0.0134
     22 C          64.8189   91.6145   14.6285 C.ar    1  UNL1        0.0377
     23 C          63.7625   90.8101   13.9307 C.ar    1  UNL1        0.1429
     24 C          66.4496   93.5324   11.5604 C.1     1  UNL1        0.1004
     25 N          67.3452   94.4399   10.7703 N.1     1  UNL1       -0.1908
     26 O          62.8668   89.9026   14.7208 O.3     1  UNL1       -0.4753
     27 C          63.1999   89.5750   16.1462 C.3     1  UNL1        0.2053
     28 C          63.1529   88.1525   16.6195 C.3     1  UNL1        0.0438
     29 C          63.4673   86.7014   16.4062 C.3     1  UNL1        0.0038
     30 C          62.7570   87.1395   17.6526 C.3     1  UNL1        0.0038
@<TRIPOS>BOND
     1    11    12    1
     2    12    13   ar
     3    13    14   ar
     4    14     1    1
     5     1     2   ar
     6     2     3   ar
     7     3     4   ar
     8     4     5   ar
     9     4     6    1
    10     6     7    1
    11     7     8   am
    12     8     9    2
    13     8    18    1
    14    18    19   ar
    15    19    20   ar
    16    20    24    1
    17    24    25    3
    18    20    21   ar
    19    21    22   ar
    20    22    23   ar
    21    23    26    1
    22    26    27    1
    23    27    28    1
    24    28    29    1
    25    29    30    1
    26     7    10    1
    27    14    15   ar
    28    15    16   ar
    29    16    17   ar
    30    17    12   ar
    31     5     1   ar
    32    23    18   ar
    33    30    28    1
    34    10     3    1
@<TRIPOS>MOLECULE
*****
 30 34 0 0 0
SMALL
GASTEIGER

@<TRIPOS>ATOM
      1 N          63.2856   84.5908   14.7059 N.ar    1  UNL1       -0.2286
      2 C          62.6597   85.3484   15.8391 C.ar    1  UNL1        0.0990
      3 C          63.1180   86.7741   15.7525 C.ar    1  UNL1        0.0338
      4 C          64.0272   86.8975   14.5659 C.ar    1  UNL1        0.0981
      5 N          64.1307   85.5482   13.9190 N.ar    1  UNL1       -0.1680
      6 C          64.4855   88.3232   14.4793 C.3     1  UNL1        0.1414
      7 N          63.8596   89.0809   15.6126 N.am    1  UNL1       -0.2660
      8 C          64.0461   90.5397   15.9072 C.2     1  UNL1        0.2525
      9 O          63.3520   91.1623   17.0822 O.2     1  UNL1       -0.2698
     10 C          63.0144   88.1234   16.3995 C.3     1  UNL1        0.1236
     11 C          60.1677   80.4650   14.1987 C.3     1  UNL1        0.0521
     12 C          61.5402   81.0689   14.1576 C.ar    1  UNL1        0.0609
     13 C          61.7267   82.5279   14.4523 C.ar    1  UNL1        0.0339
     14 C          63.0991   83.1319   14.4112 C.ar    1  UNL1        0.0855
     15 C          64.2850   82.2770   14.0755 C.ar    1  UNL1        0.0398
     16 C          64.0985   80.8180   13.7809 C.ar    1  UNL1        0.1000
     17 N          62.7261   80.2140   13.8219 N.ar    1  UNL1       -0.2480
     18 C          64.9266   91.3761   15.0268 C.ar    1  UNL1        0.0881
     19 C          66.1599   92.0167   15.5912 C.ar    1  UNL1        0.0178
     20 C          67.0406   92.8531   14.7108 C.ar    1  UNL1        0.0688
     21 C          66.6879   93.0489   13.2661 C.ar    1  UNL1        0.0134
     22 C          65.4545   92.4083   12.7017 C.ar    1  UNL1        0.0377
     23 C          64.5739   91.5719   13.5820 C.ar    1  UNL1        0.1429
     24 C          68.2739   93.4937   15.2753 C.1     1  UNL1        0.1004
     25 N          69.5072   94.1342   15.8396 N.1     1  UNL1       -0.1908
     26 O          63.3406   90.9313   13.0177 O.3     1  UNL1       -0.4753
     27 C          63.2315   90.6852   11.5420 C.3     1  UNL1        0.2053
     28 C          62.6685   89.3897   11.0374 C.3     1  UNL1        0.0438
     29 C          62.3902   87.9291   11.2360 C.3     1  UNL1        0.0038
     30 C          61.9716   88.6063    9.9647 C.3     1  UNL1        0.0038
@<TRIPOS>BOND
     1    11    12    1
     2    12    13   ar
     3    13    14   ar
     4    14     1    1
     5     1     2   ar
     6     2     3   ar
     7     3     4   ar
     8     4     5   ar
     9     4     6    1
    10     6     7    1
    11     7     8   am
    12     8     9    2
    13     8    18    1
    14    18    19   ar
    15    19    20   ar
    16    20    24    1
    17    24    25    3
    18    20    21   ar
    19    21    22   ar
    20    22    23   ar
    21    23    26    1
    22    26    27    1
    23    27    28    1
    24    28    29    1
    25    29    30    1
    26     7    10    1
    27    14    15   ar
    28    15    16   ar
    29    16    17   ar
    30    17    12   ar
    31     5     1   ar
    32    23    18   ar
    33    30    28    1
    34    10     3    1
@<TRIPOS>MOLECULE
*****
 30 34 0 0 0
SMALL
GASTEIGER

@<TRIPOS>ATOM
      1 N          59.7019   89.2123    7.3076 N.ar    1  UNL1       -0.2286
      2 C          59.7101   87.7124    7.3001 C.ar    1  UNL1        0.0990
      3 C          60.4812   87.2472    8.4997 C.ar    1  UNL1        0.0338
      4 C          60.9495   88.4596    9.2486 C.ar    1  UNL1        0.0981
      5 N          60.4678   89.6741    8.5118 N.ar    1  UNL1       -0.1680
      6 C          61.7206   87.9943   10.4481 C.3     1  UNL1        0.1414
      7 N          61.7289   86.4943   10.4407 N.am    1  UNL1       -0.2660
      8 C          62.3874   85.6112   11.4586 C.2     1  UNL1        0.2525
      9 O          62.3112   84.1196   11.3191 O.2     1  UNL1       -0.2698
     10 C          60.9629   86.0326    9.2364 C.3     1  UNL1        0.1236
     11 C          60.0568   92.7183    3.4889 C.3     1  UNL1        0.0521
     12 C          59.2207   91.8485    4.3802 C.ar    1  UNL1        0.0609
     13 C          59.8792   90.9653    5.3982 C.ar    1  UNL1        0.0339
     14 C          59.0433   90.0955    6.2896 C.ar    1  UNL1        0.0855
     15 C          57.5487   90.1089    6.1630 C.ar    1  UNL1        0.0398
     16 C          56.8902   90.9921    5.1450 C.ar    1  UNL1        0.1000
     17 N          57.7261   91.8619    4.2536 N.ar    1  UNL1       -0.2480
     18 C          63.1223   86.2196   12.6161 C.ar    1  UNL1        0.0881
     19 C          63.2793   87.7087   12.7057 C.ar    1  UNL1        0.0178
     20 C          64.0142   88.3171   13.8632 C.ar    1  UNL1        0.0688
     21 C          64.5920   87.4365   14.9312 C.ar    1  UNL1        0.0134
     22 C          64.4350   85.9473   14.8417 C.ar    1  UNL1        0.0377
     23 C          63.7001   85.3390   13.6842 C.ar    1  UNL1        0.1429
     24 C          64.1712   89.8062   13.9527 C.1     1  UNL1        0.1004
     25 N          64.3282   91.2952   14.0420 N.1     1  UNL1       -0.1908
     26 O          63.5431   83.8499   13.5946 O.3     1  UNL1       -0.4753
     27 C          62.6205   83.1350   14.5369 C.3     1  UNL1        0.2053
     28 C          62.0015   81.8294   14.1342 C.3     1  UNL1        0.0438
     29 C          62.1033   80.5017   13.4436 C.3     1  UNL1        0.0038
     30 C          60.8276   80.8957   14.1273 C.3     1  UNL1        0.0038
@<TRIPOS>BOND
     1    11    12    1
     2    12    13   ar
     3    13    14   ar
     4    14     1    1
     5     1     2   ar
     6     2     3   ar
     7     3     4   ar
     8     4     5   ar
     9     4     6    1
    10     6     7    1
    11     7     8   am
    12     8     9    2
    13     8    18    1
    14    18    19   ar
    15    19    20   ar
    16    20    24    1
    17    24    25    3
    18    20    21   ar
    19    21    22   ar
    20    22    23   ar
    21    23    26    1
    22    26    27    1
    23    27    28    1
    24    28    29    1
    25    29    30    1
    26     7    10    1
    27    14    15   ar
    28    15    16   ar
    29    16    17   ar
    30    17    12   ar
    31     5     1   ar
    32    23    18   ar
    33    30    28    1
    34    10     3    1
@<TRIPOS>MOLECULE
*****
 30 34 0 0 0
SMALL
GASTEIGER

@<TRIPOS>ATOM
      1 N          62.7123   84.7516   12.6406 N.ar    1  UNL1       -0.2286
      2 C          62.0490   85.5722   11.5745 C.ar    1  UNL1        0.0990
      3 C          62.5266   86.9872   11.7144 C.ar    1  UNL1        0.0338
      4 C          63.4851   87.0411   12.8669 C.ar    1  UNL1        0.0981
      5 N          63.5999   85.6594   13.4393 N.ar    1  UNL1       -0.1680
      6 C          63.9628   88.4561   13.0068 C.3     1  UNL1        0.1414
      7 N          63.2994   89.2769   11.9407 N.am    1  UNL1       -0.2660
      8 C          63.4901   90.7471   11.7134 C.2     1  UNL1        0.2525
      9 O          62.7553   91.4357   10.6015 O.2     1  UNL1       -0.2698
     10 C          62.4118   88.3689   11.1420 C.3     1  UNL1        0.1236
     11 C          62.9373   79.8620   10.8967 C.3     1  UNL1        0.0521
     12 C          62.6341   80.8364   11.9960 C.ar    1  UNL1        0.0609
     13 C          62.8248   82.3068   11.7687 C.ar    1  UNL1        0.0339
     14 C          62.5216   83.2812   12.8680 C.ar    1  UNL1        0.0855
     15 C          62.0277   82.7853   14.1947 C.ar    1  UNL1        0.0398
     16 C          61.8370   81.3149   14.4220 C.ar    1  UNL1        0.1000
     17 N          62.1402   80.3405   13.3227 N.ar    1  UNL1       -0.2480
     18 C          64.4156   91.5290   12.5978 C.ar    1  UNL1        0.0881
     19 C          64.2195   91.5179   14.0848 C.ar    1  UNL1        0.0178
     20 C          65.1450   92.2998   14.9693 C.ar    1  UNL1        0.0688
     21 C          66.2665   93.0927   14.3667 C.ar    1  UNL1        0.0134
     22 C          66.4627   93.1038   12.8795 C.ar    1  UNL1        0.0377
     23 C          65.5373   92.3220   11.9951 C.ar    1  UNL1        0.1429
     24 C          64.9488   92.2886   16.4563 C.1     1  UNL1        0.1004
     25 N          64.7526   92.2773   17.9434 N.1     1  UNL1       -0.1908
     26 O          65.7334   92.3331   10.5081 O.3     1  UNL1       -0.4753
     27 C          67.0394   92.7881    9.9272 C.3     1  UNL1        0.2053
     28 C          67.1680   94.1723    9.3640 C.3     1  UNL1        0.0438
     29 C          67.2590   95.0903    8.1812 C.3     1  UNL1        0.0038
     30 C          67.3000   95.6521    9.5714 C.3     1  UNL1        0.0038
@<TRIPOS>BOND
     1    11    12    1
     2    12    13   ar
     3    13    14   ar
     4    14     1    1
     5     1     2   ar
     6     2     3   ar
     7     3     4   ar
     8     4     5   ar
     9     4     6    1
    10     6     7    1
    11     7     8   am
    12     8     9    2
    13     8    18    1
    14    18    19   ar
    15    19    20   ar
    16    20    24    1
    17    24    25    3
    18    20    21   ar
    19    21    22   ar
    20    22    23   ar
    21    23    26    1
    22    26    27    1
    23    27    28    1
    24    28    29    1
    25    29    30    1
    26     7    10    1
    27    14    15   ar
    28    15    16   ar
    29    16    17   ar
    30    17    12   ar
    31     5     1   ar
    32    23    18   ar
    33    30    28    1
    34    10     3    1
@<TRIPOS>MOLECULE
*****
 30 34 0 0 0
SMALL
GASTEIGER

@<TRIPOS>ATOM
      1 N          63.1089   83.4203   13.0612 N.ar    1  UNL1       -0.2286
      2 C          63.4323   84.0742   14.3719 C.ar    1  UNL1        0.0990
      3 C          63.5852   85.5466   14.1300 C.ar    1  UNL1        0.0338
      4 C          63.3563   85.8028   12.6698 C.ar    1  UNL1        0.0981
      5 N          63.0620   84.4886   12.0093 N.ar    1  UNL1       -0.1680
      6 C          63.5092   87.2752   12.4279 C.3     1  UNL1        0.1414
      7 N          63.8326   87.9292   13.7386 N.am    1  UNL1       -0.2660
      8 C          64.0677   89.3941   13.9587 C.2     1  UNL1        0.2525
      9 O          64.3834   89.9049   15.3333 O.2     1  UNL1       -0.2698
     10 C          63.8795   86.8608   14.7905 C.3     1  UNL1        0.1236
     11 C          62.9323   79.3201    9.8742 C.3     1  UNL1        0.0521
     12 C          62.7855   79.9051   11.2476 C.ar    1  UNL1        0.0609
     13 C          63.0206   81.3701   11.4678 C.ar    1  UNL1        0.0339
     14 C          62.8738   81.9553   12.8411 C.ar    1  UNL1        0.0855
     15 C          62.4918   81.0754   13.9943 C.ar    1  UNL1        0.0398
     16 C          62.2567   79.6103   13.7741 C.ar    1  UNL1        0.1000
     17 N          62.4035   79.0252   12.4008 N.ar    1  UNL1       -0.2480
     18 C          63.9871   90.3484   12.8042 C.ar    1  UNL1        0.0881
     19 C          65.1151   91.3006   12.5381 C.ar    1  UNL1        0.0178
     20 C          65.0345   92.2550   11.3836 C.ar    1  UNL1        0.0688
     21 C          63.8259   92.2571   10.4953 C.ar    1  UNL1        0.0134
     22 C          62.6978   91.3049   10.7614 C.ar    1  UNL1        0.0377
     23 C          62.7784   90.3506   11.9159 C.ar    1  UNL1        0.1429
     24 C          66.1627   93.2071   11.1175 C.1     1  UNL1        0.1004
     25 N          67.2908   94.1592   10.8516 N.1     1  UNL1       -0.1908
     26 O          61.6503   89.3985   12.1820 O.3     1  UNL1       -0.4753
     27 C          60.5086   89.2991   11.2142 C.3     1  UNL1        0.2053
     28 C          60.4626   88.1756   10.2214 C.3     1  UNL1        0.0438
     29 C          60.8069   86.7673    9.8364 C.3     1  UNL1        0.0038
     30 C          60.0386   87.6380    8.8868 C.3     1  UNL1        0.0038
@<TRIPOS>BOND
     1    11    12    1
     2    12    13   ar
     3    13    14   ar
     4    14     1    1
     5     1     2   ar
     6     2     3   ar
     7     3     4   ar
     8     4     5   ar
     9     4     6    1
    10     6     7    1
    11     7     8   am
    12     8     9    2
    13     8    18    1
    14    18    19   ar
    15    19    20   ar
    16    20    24    1
    17    24    25    3
    18    20    21   ar
    19    21    22   ar
    20    22    23   ar
    21    23    26    1
    22    26    27    1
    23    27    28    1
    24    28    29    1
    25    29    30    1
    26     7    10    1
    27    14    15   ar
    28    15    16   ar
    29    16    17   ar
    30    17    12   ar
    31     5     1   ar
    32    23    18   ar
    33    30    28    1
    34    10     3    1
@<TRIPOS>MOLECULE
*****
 30 34 0 0 0
SMALL
GASTEIGER

@<TRIPOS>ATOM
      1 N          62.8482   83.4673   13.8924 N.ar    1  UNL1       -0.2286
      2 C          63.5257   84.1763   15.0274 C.ar    1  UNL1        0.0990
      3 C          63.7314   85.6062   14.6239 C.ar    1  UNL1        0.0338
      4 C          63.1809   85.7811   13.2395 C.ar    1  UNL1        0.0981
      5 N          62.6351   84.4591   12.7874 N.ar    1  UNL1       -0.1680
      6 C          63.3866   87.2110   12.8360 C.3     1  UNL1        0.1414
      7 N          64.0641   87.9201   13.9711 N.am    1  UNL1       -0.2660
      8 C          64.4591   89.3669   13.9967 C.2     1  UNL1        0.2525
      9 O          65.1334   89.9390   15.2084 O.2     1  UNL1       -0.2698
     10 C          64.2772   86.9282   15.0760 C.3     1  UNL1        0.1236
     11 C          59.2182   79.7841   14.3999 C.3     1  UNL1        0.0521
     12 C          60.6381   80.1788   14.1206 C.ar    1  UNL1        0.0609
     13 C          61.0333   81.6256   14.1461 C.ar    1  UNL1        0.0339
     14 C          62.4532   82.0204   13.8668 C.ar    1  UNL1        0.0855
     15 C          63.4780   80.9684   13.5618 C.ar    1  UNL1        0.0398
     16 C          63.0828   79.5216   13.5362 C.ar    1  UNL1        0.1000
     17 N          61.6629   79.1268   13.8156 N.ar    1  UNL1       -0.2480
     18 C          64.1800   90.2416   12.8106 C.ar    1  UNL1        0.0881
     19 C          62.9709   89.9883   11.9599 C.ar    1  UNL1        0.0178
     20 C          62.6917   90.8631   10.7737 C.ar    1  UNL1        0.0688
     21 C          63.6217   91.9912   10.4384 C.ar    1  UNL1        0.0134
     22 C          64.8309   92.2446   11.2891 C.ar    1  UNL1        0.0377
     23 C          65.1100   91.3698   12.4752 C.ar    1  UNL1        0.1429
     24 C          61.4825   90.6097    9.9230 C.1     1  UNL1        0.1004
     25 N          60.2735   90.3562    9.0722 N.1     1  UNL1       -0.1908
     26 O          66.3191   91.6231   13.3260 O.3     1  UNL1       -0.4753
     27 C          66.4213   92.8875   14.1266 C.3     1  UNL1        0.2053
     28 C          67.4913   93.0314   15.1679 C.3     1  UNL1        0.0438
     29 C          68.3348   92.4341   16.2550 C.3     1  UNL1        0.0038
     30 C          68.5012   93.8780   15.8844 C.3     1  UNL1        0.0038
@<TRIPOS>BOND
     1    11    12    1
     2    12    13   ar
     3    13    14   ar
     4    14     1    1
     5     1     2   ar
     6     2     3   ar
     7     3     4   ar
     8     4     5   ar
     9     4     6    1
    10     6     7    1
    11     7     8   am
    12     8     9    2
    13     8    18    1
    14    18    19   ar
    15    19    20   ar
    16    20    24    1
    17    24    25    3
    18    20    21   ar
    19    21    22   ar
    20    22    23   ar
    21    23    26    1
    22    26    27    1
    23    27    28    1
    24    28    29    1
    25    29    30    1
    26     7    10    1
    27    14    15   ar
    28    15    16   ar
    29    16    17   ar
    30    17    12   ar
    31     5     1   ar
    32    23    18   ar
    33    30    28    1
    34    10     3    1
@<TRIPOS>MOLECULE
*****
 30 34 0 0 0
SMALL
GASTEIGER

@<TRIPOS>ATOM
      1 N          63.0402   84.1653   13.4349 N.ar    1  UNL1       -0.2286
      2 C          62.6462   85.0669   12.3028 C.ar    1  UNL1        0.0990
      3 C          63.1328   86.4497   12.6207 C.ar    1  UNL1        0.0338
      4 C          63.8276   86.4027   13.9492 C.ar    1  UNL1        0.0981
      5 N          63.7704   84.9908   14.4524 N.ar    1  UNL1       -0.1680
      6 C          64.3143   87.7855   14.2671 C.3     1  UNL1        0.1414
      7 N          63.9202   88.6872   13.1349 N.am    1  UNL1       -0.2660
      8 C          64.2061   90.1564   13.0375 C.2     1  UNL1        0.2525
      9 O          63.7474   90.9319   11.8382 O.2     1  UNL1       -0.2698
     10 C          63.1900   87.8616   12.1174 C.3     1  UNL1        0.1236
     11 C          59.6919   80.2771   14.2541 C.3     1  UNL1        0.0521
     12 C          61.0801   80.7519   13.9420 C.ar    1  UNL1        0.0609
     13 C          61.3661   82.2212   13.8445 C.ar    1  UNL1        0.0339
     14 C          62.7543   82.6960   13.5324 C.ar    1  UNL1        0.0855
     15 C          63.8566   81.7016   13.3178 C.ar    1  UNL1        0.0398
     16 C          63.5706   80.2323   13.4153 C.ar    1  UNL1        0.1000
     17 N          62.1824   79.7574   13.7274 N.ar    1  UNL1       -0.2480
     18 C          64.9508   90.8503   14.1393 C.ar    1  UNL1        0.0881
     19 C          66.3162   91.4153   13.8816 C.ar    1  UNL1        0.0178
     20 C          67.0610   92.1092   14.9834 C.ar    1  UNL1        0.0688
     21 C          66.4403   92.2381   16.3428 C.ar    1  UNL1        0.0134
     22 C          65.0749   91.6731   16.6006 C.ar    1  UNL1        0.0377
     23 C          64.3302   90.9792   15.4988 C.ar    1  UNL1        0.1429
     24 C          68.4264   92.6742   14.7256 C.1     1  UNL1        0.1004
     25 N          69.7918   93.2391   14.4678 N.1     1  UNL1       -0.1908
     26 O          62.9648   90.4142   15.7565 O.3     1  UNL1       -0.4753
     27 C          62.6598   89.7598   17.0713 C.3     1  UNL1        0.2053
     28 C          62.5414   88.2669   17.1564 C.3     1  UNL1        0.0438
     29 C          63.1023   86.9412   17.5783 C.3     1  UNL1        0.0038
     30 C          61.7754   87.0068   16.8819 C.3     1  UNL1        0.0038
@<TRIPOS>BOND
     1    11    12    1
     2    12    13   ar
     3    13    14   ar
     4    14     1    1
     5     1     2   ar
     6     2     3   ar
     7     3     4   ar
     8     4     5   ar
     9     4     6    1
    10     6     7    1
    11     7     8   am
    12     8     9    2
    13     8    18    1
    14    18    19   ar
    15    19    20   ar
    16    20    24    1
    17    24    25    3
    18    20    21   ar
    19    21    22   ar
    20    22    23   ar
    21    23    26    1
    22    26    27    1
    23    27    28    1
    24    28    29    1
    25    29    30    1
    26     7    10    1
    27    14    15   ar
    28    15    16   ar
    29    16    17   ar
    30    17    12   ar
    31     5     1   ar
    32    23    18   ar
    33    30    28    1
    34    10     3    1
