@<TRIPOS>MOLECULE
*****
 45 49 0 0 0
SMALL
GASTEIGER

@<TRIPOS>ATOM
      1 C          61.8158   86.1473   10.8937 C.3     1  UNL1        0.1696
      2 C          62.5403   84.9738   11.4836 C.3     1  UNL1        0.1274
      3 N          63.4535   84.9402   12.6732 N.am    1  UNL1       -0.2518
      4 C          64.0286   83.5975   13.0144 C.2     1  UNL1        0.2528
      5 O          64.9541   83.4538   14.1862 O.2     1  UNL1       -0.2696
      6 C          63.8676   86.0717   13.5666 C.ar    1  UNL1        0.0678
      7 C          64.7987   85.6051   14.6461 C.ar    1  UNL1        0.0162
      8 C          65.3331   86.5831   15.6501 C.ar    1  UNL1        0.0014
      9 C          64.9363   88.0277   15.5746 C.ar    1  UNL1        0.0014
     10 C          64.0052   88.4943   14.4951 C.ar    1  UNL1        0.0162
     11 C          63.4709   87.5163   13.4912 C.ar    1  UNL1        0.0679
     12 N          62.5620   88.1862   12.5036 N.am    1  UNL1       -0.2517
     13 C          61.8254   87.5770   11.3476 C.2     1  UNL1        0.2493
     14 O          60.9877   88.5223   10.5387 O.2     1  UNL1       -0.2727
     15 C          63.6782   82.3985   12.1840 C.ar    1  UNL1        0.0540
     16 C          62.9861   81.2263   12.8138 C.ar    1  UNL1        0.0058
     17 C          62.6358   80.0273   11.9834 C.ar    1  UNL1        0.0142
     18 C          62.9776   80.0005   10.5231 C.ar    1  UNL1        0.0415
     19 N          62.6272   78.8015    9.6926 N.pl3   1  UNL1       -0.3570
     20 C          63.6697   81.1728    9.8933 C.ar    1  UNL1        0.0142
     21 C          64.0200   82.3718   10.7236 C.ar    1  UNL1        0.0058
     22 H          62.1729   78.0321   10.1060 H       1  UNL1        0.1424
     23 H          62.8515   78.7840    8.7342 H       1  UNL1        0.1424
     24 C          61.6168   85.6161    8.3583 C.2     1  UNL1        0.2371
     25 O          63.1101   85.6754    8.2287 O.2     1  UNL1       -0.2737
     26 N          60.9697   85.8521    9.6908 N.am    1  UNL1       -0.2959
     27 H          59.9896   85.8132    9.7759 H       1  UNL1        0.1499
     28 C          60.7707   85.3209    7.1554 C.3     1  UNL1        0.1316
     29 C          61.3377   84.5264    6.0164 C.3     1  UNL1        0.0270
     30 C          59.0370   87.2208    7.5220 C.3     1  UNL1        0.0862
     31 N          59.3577   85.8202    7.0915 N.3     1  UNL1       -0.2902
     32 H          59.0590   85.7351    6.1199 H       1  UNL1        0.1237
     33 C          62.3634   89.6603   12.6977 C.3     1  UNL1        0.1278
     34 C          63.3442   90.6327   12.1123 C.ar    1  UNL1        0.0320
     35 C          63.3424   90.9030   10.6369 C.ar    1  UNL1        0.1363
     36 C          64.3231   91.8754   10.0514 C.ar    1  UNL1        0.0366
     37 C          65.3054   92.5775   10.9414 C.ar    1  UNL1        0.0031
     38 C          65.3071   92.3072   12.4168 C.ar    1  UNL1       -0.0001
     39 C          66.2894   93.0093   13.3068 C.ar    1  UNL1       -0.0000
     40 C          66.2911   92.7390   14.7822 C.ar    1  UNL1       -0.0000
     41 C          65.3104   91.7665   15.3677 C.ar    1  UNL1       -0.0000
     42 C          64.3281   91.0645   14.4777 C.ar    1  UNL1       -0.0002
     43 C          64.3264   91.3348   13.0023 C.ar    1  UNL1        0.0006
     44 O          62.3601   90.2009    9.7468 O.3     1  UNL1       -0.4717
     45 C          60.9374   90.4655    9.3521 C.3     1  UNL1        0.2525
@<TRIPOS>BOND
     1    30    31    1
     2    31    28    1
     3    28    29    1
     4    28    24    1
     5    24    25    2
     6    24    26   am
     7     1    26    1
     8     1     2    1
     9     2     3    1
    10     3     4   am
    11     4     5    2
    12     4    15    1
    13    15    16   ar
    14    16    17   ar
    15    17    18   ar
    16    18    19    1
    17    18    20   ar
    18    20    21   ar
    19     3     6    1
    20     6     7   ar
    21     7     8   ar
    22     8     9   ar
    23     9    10   ar
    24    10    11   ar
    25    11    12    1
    26    12    33    1
    27    33    34    1
    28    34    35   ar
    29    35    44    1
    30    44    45    1
    31    35    36   ar
    32    36    37   ar
    33    37    38   ar
    34    38    39   ar
    35    39    40   ar
    36    40    41   ar
    37    41    42   ar
    38    42    43   ar
    39    12    13   am
    40    13    14    2
    41    13     1    1
    42    21    15   ar
    43    11     6   ar
    44    43    34   ar
    45    43    38   ar
    46    31    32    1
    47    26    27    1
    48    19    22    1
    49    19    23    1
@<TRIPOS>MOLECULE
*****
 45 49 0 0 0
SMALL
GASTEIGER

@<TRIPOS>ATOM
      1 C          62.4783   86.3862   10.9478 C.3     1  UNL1        0.1696
      2 C          62.8149   85.1289   11.6934 C.3     1  UNL1        0.1274
      3 N          63.2143   84.9724   13.1307 N.am    1  UNL1       -0.2518
      4 C          63.4885   83.5681   13.5808 C.2     1  UNL1        0.2528
      5 O          63.8952   83.3011   14.9998 O.2     1  UNL1       -0.2696
      6 C          63.3757   86.0346   14.1776 C.ar    1  UNL1        0.0678
      7 C          63.7904   85.4478   15.4943 C.ar    1  UNL1        0.0162
      8 C          64.0070   86.3420   16.6789 C.ar    1  UNL1        0.0014
      9 C          63.8089   87.8230   16.5469 C.ar    1  UNL1        0.0014
     10 C          63.3943   88.4098   15.2302 C.ar    1  UNL1        0.0162
     11 C          63.1777   87.5156   14.0455 C.ar    1  UNL1        0.0679
     12 N          62.7692   88.3001   12.8340 N.am    1  UNL1       -0.2517
     13 C          62.4580   87.7976   11.4554 C.2     1  UNL1        0.2493
     14 O          62.0759   88.8448   10.4518 O.2     1  UNL1       -0.2727
     15 C          63.3561   82.4306   12.6120 C.ar    1  UNL1        0.0540
     16 C          63.8853   82.5695   11.2154 C.ar    1  UNL1        0.0058
     17 C          63.7529   81.4321   10.2465 C.ar    1  UNL1        0.0142
     18 C          63.0912   80.1557   10.6743 C.ar    1  UNL1        0.0415
     19 N          62.9588   79.0182    9.7055 N.pl3   1  UNL1       -0.3570
     20 C          62.5620   80.0168   12.0709 C.ar    1  UNL1        0.0142
     21 C          62.6944   81.1542   13.0398 C.ar    1  UNL1        0.0058
     22 H          63.3061   79.1094    8.7888 H       1  UNL1        0.1424
     23 H          62.5245   78.1805    9.9862 H       1  UNL1        0.1424
     24 C          60.7015   86.4370    9.0530 C.2     1  UNL1        0.2371
     25 O          59.6536   86.8429   10.0466 O.2     1  UNL1       -0.2737
     26 N          62.1139   86.2087    9.5036 N.am    1  UNL1       -0.2959
     27 H          62.8017   85.9424    8.8515 H       1  UNL1        0.1499
     28 C          60.3371   86.2595    7.6088 C.3     1  UNL1        0.1316
     29 C          61.0888   85.2765    6.7610 C.3     1  UNL1        0.0270
     30 C          59.1941   88.5544    7.1880 C.3     1  UNL1        0.0862
     31 N          59.2210   87.0649    7.0125 N.3     1  UNL1       -0.2902
     32 H          59.2335   86.8870    6.0082 H       1  UNL1        0.1237
     33 C          62.6572   89.7835   13.0267 C.3     1  UNL1        0.1278
     34 C          63.5640   90.7087   12.2704 C.ar    1  UNL1        0.0320
     35 C          63.1519   91.2290   10.9254 C.ar    1  UNL1        0.1363
     36 C          64.0586   92.1542   10.1691 C.ar    1  UNL1        0.0366
     37 C          65.3775   92.5590   10.7579 C.ar    1  UNL1        0.0031
     38 C          65.7896   92.0386   12.1031 C.ar    1  UNL1       -0.0001
     39 C          67.1085   92.4434   12.6920 C.ar    1  UNL1       -0.0000
     40 C          67.5205   91.9230   14.0371 C.ar    1  UNL1       -0.0000
     41 C          66.6138   90.9978   14.7934 C.ar    1  UNL1       -0.0000
     42 C          65.2950   90.5931   14.2044 C.ar    1  UNL1       -0.0002
     43 C          64.8829   91.1134   12.8594 C.ar    1  UNL1        0.0006
     44 O          61.8330   90.8243   10.3364 O.3     1  UNL1       -0.4717
     45 C          60.4126   90.8971   10.8129 C.3     1  UNL1        0.2525
@<TRIPOS>BOND
     1    30    31    1
     2    31    28    1
     3    28    29    1
     4    28    24    1
     5    24    25    2
     6    24    26   am
     7     1    26    1
     8     1     2    1
     9     2     3    1
    10     3     4   am
    11     4     5    2
    12     4    15    1
    13    15    16   ar
    14    16    17   ar
    15    17    18   ar
    16    18    19    1
    17    18    20   ar
    18    20    21   ar
    19     3     6    1
    20     6     7   ar
    21     7     8   ar
    22     8     9   ar
    23     9    10   ar
    24    10    11   ar
    25    11    12    1
    26    12    33    1
    27    33    34    1
    28    34    35   ar
    29    35    44    1
    30    44    45    1
    31    35    36   ar
    32    36    37   ar
    33    37    38   ar
    34    38    39   ar
    35    39    40   ar
    36    40    41   ar
    37    41    42   ar
    38    42    43   ar
    39    12    13   am
    40    13    14    2
    41    13     1    1
    42    21    15   ar
    43    11     6   ar
    44    43    34   ar
    45    43    38   ar
    46    31    32    1
    47    26    27    1
    48    19    22    1
    49    19    23    1
@<TRIPOS>MOLECULE
*****
 45 49 0 0 0
SMALL
GASTEIGER

@<TRIPOS>ATOM
      1 C          61.5374   89.0517    9.5291 C.3     1  UNL1        0.1696
      2 C          61.8749   87.6159    9.2561 C.3     1  UNL1        0.1274
      3 N          62.4764   86.6036   10.1853 N.am    1  UNL1       -0.2518
      4 C          62.6942   85.2371    9.6063 C.2     1  UNL1        0.2528
      5 O          63.2905   84.1506   10.4514 O.2     1  UNL1       -0.2696
      6 C          62.8891   86.7770   11.6170 C.ar    1  UNL1        0.0678
      7 C          63.4497   85.5064   12.1835 C.ar    1  UNL1        0.0162
      8 C          63.9234   85.4643   13.6061 C.ar    1  UNL1        0.0014
      9 C          63.8363   86.6930   14.4622 C.ar    1  UNL1        0.0014
     10 C          63.2757   87.9637   13.8957 C.ar    1  UNL1        0.0162
     11 C          62.8021   88.0057   12.4731 C.ar    1  UNL1        0.0679
     12 N          62.2809   89.3643   12.1089 N.am    1  UNL1       -0.2517
     13 C          61.7181   89.8299   10.7987 C.2     1  UNL1        0.2493
     14 O          61.2777   91.2630   10.7520 O.2     1  UNL1       -0.2727
     15 C          62.3156   84.9570    8.1821 C.ar    1  UNL1        0.0540
     16 C          60.8773   85.0223    7.7616 C.ar    1  UNL1        0.0058
     17 C          60.4986   84.7422    6.3375 C.ar    1  UNL1        0.0142
     18 C          61.5585   84.3968    5.3338 C.ar    1  UNL1        0.0415
     19 N          61.1799   84.1166    3.9096 N.pl3   1  UNL1       -0.3570
     20 C          62.9968   84.3314    5.7542 C.ar    1  UNL1        0.0142
     21 C          63.3754   84.6115    7.1784 C.ar    1  UNL1        0.0058
     22 H          60.2359   84.1595    3.6336 H       1  UNL1        0.1424
     23 H          61.8755   83.8899    3.2508 H       1  UNL1        0.1424
     24 C          59.8300   89.2007    7.5765 C.2     1  UNL1        0.2371
     25 O          59.3169   87.8339    7.9209 O.2     1  UNL1       -0.2737
     26 N          60.9402   89.8096    8.3807 N.am    1  UNL1       -0.2959
     27 H          61.2770   90.7067    8.1547 H       1  UNL1        0.1499
     28 C          59.2329   89.9586    6.4281 C.3     1  UNL1        0.1316
     29 C          60.1258   90.6392    5.4333 C.3     1  UNL1        0.0270
     30 C          57.1410   90.9513    5.2496 C.3     1  UNL1        0.0862
     31 N          57.7428   90.0360    6.2744 N.3     1  UNL1       -0.2902
     32 H          57.4203   89.0940    6.0533 H       1  UNL1        0.1237
     33 C          62.3289   90.3935   13.1990 C.3     1  UNL1        0.1278
     34 C          63.6498   90.9253   13.6708 C.ar    1  UNL1        0.0320
     35 C          64.0150   90.8448   15.1234 C.ar    1  UNL1        0.1363
     36 C          65.3358   91.3766   15.5953 C.ar    1  UNL1        0.0366
     37 C          66.2915   91.9889   14.6145 C.ar    1  UNL1        0.0031
     38 C          65.9262   92.0693   13.1618 C.ar    1  UNL1       -0.0001
     39 C          66.8819   92.6815   12.1810 C.ar    1  UNL1       -0.0000
     40 C          66.5166   92.7619   10.7284 C.ar    1  UNL1       -0.0000
     41 C          65.1957   92.2301   10.2565 C.ar    1  UNL1       -0.0000
     42 C          64.2402   91.6179   11.2374 C.ar    1  UNL1       -0.0002
     43 C          64.6054   91.5375   12.6900 C.ar    1  UNL1        0.0006
     44 O          63.0594   90.2327   16.1043 O.3     1  UNL1       -0.4717
     45 C          63.1358   89.0662   17.0443 C.3     1  UNL1        0.2525
@<TRIPOS>BOND
     1    30    31    1
     2    31    28    1
     3    28    29    1
     4    28    24    1
     5    24    25    2
     6    24    26   am
     7     1    26    1
     8     1     2    1
     9     2     3    1
    10     3     4   am
    11     4     5    2
    12     4    15    1
    13    15    16   ar
    14    16    17   ar
    15    17    18   ar
    16    18    19    1
    17    18    20   ar
    18    20    21   ar
    19     3     6    1
    20     6     7   ar
    21     7     8   ar
    22     8     9   ar
    23     9    10   ar
    24    10    11   ar
    25    11    12    1
    26    12    33    1
    27    33    34    1
    28    34    35   ar
    29    35    44    1
    30    44    45    1
    31    35    36   ar
    32    36    37   ar
    33    37    38   ar
    34    38    39   ar
    35    39    40   ar
    36    40    41   ar
    37    41    42   ar
    38    42    43   ar
    39    12    13   am
    40    13    14    2
    41    13     1    1
    42    21    15   ar
    43    11     6   ar
    44    43    34   ar
    45    43    38   ar
    46    31    32    1
    47    26    27    1
    48    19    22    1
    49    19    23    1
@<TRIPOS>MOLECULE
*****
 45 49 0 0 0
SMALL
GASTEIGER

@<TRIPOS>ATOM
      1 C          61.8982   86.3378   10.7949 C.3     1  UNL1        0.1696
      2 C          62.6148   85.1582   11.3824 C.3     1  UNL1        0.1274
      3 N          63.5559   85.1222   12.5498 N.am    1  UNL1       -0.2518
      4 C          64.1138   83.7732   12.8946 C.2     1  UNL1        0.2528
      5 O          65.0648   83.6265   14.0454 O.2     1  UNL1       -0.2696
      6 C          64.0130   86.2567   13.4181 C.ar    1  UNL1        0.0678
      7 C          64.9612   85.7860   14.4807 C.ar    1  UNL1        0.0162
      8 C          65.5382   86.7662   15.4586 C.ar    1  UNL1        0.0014
      9 C          65.1670   88.2171   15.3738 C.ar    1  UNL1        0.0014
     10 C          64.2188   88.6878   14.3112 C.ar    1  UNL1        0.0162
     11 C          63.6418   87.7076   13.3333 C.ar    1  UNL1        0.0679
     12 N          62.7218   88.3822   12.3594 N.am    1  UNL1       -0.2517
     13 C          61.9458   87.7726   11.2296 C.2     1  UNL1        0.2493
     14 O          61.1065   88.7235   10.4289 O.2     1  UNL1       -0.2727
     15 C          63.7208   82.5706   12.0886 C.ar    1  UNL1        0.0540
     16 C          62.9651   81.4482   12.7359 C.ar    1  UNL1        0.0058
     17 C          62.5720   80.2458   11.9300 C.ar    1  UNL1        0.0142
     18 C          62.9347   80.1658   10.4767 C.ar    1  UNL1        0.0415
     19 N          62.5416   78.9633    9.6707 N.pl3   1  UNL1       -0.3570
     20 C          63.6903   81.2882    9.8294 C.ar    1  UNL1        0.0142
     21 C          64.0834   82.4906   10.6353 C.ar    1  UNL1        0.0058
     22 H          62.0457   78.2265   10.0955 H       1  UNL1        0.1424
     23 H          62.7796   78.9107    8.7168 H       1  UNL1        0.1424
     24 C          61.6273   85.6457    8.3054 C.2     1  UNL1        0.2371
     25 O          63.1179   85.5419    8.1721 O.2     1  UNL1       -0.2737
     26 N          61.0176   86.0437    9.6167 N.am    1  UNL1       -0.2959
     27 H          60.0393   86.1118    9.7042 H       1  UNL1        0.1499
     28 C          60.7467   85.3516    7.1272 C.3     1  UNL1        0.1316
     29 C          61.2777   84.5507    5.9754 C.3     1  UNL1        0.0270
     30 C          59.0477   87.2945    7.4244 C.3     1  UNL1        0.0862
     31 N          59.3352   85.8582    7.1009 N.3     1  UNL1       -0.2902
     32 H          58.9800   85.6917    6.1594 H       1  UNL1        0.1237
     33 C          62.5558   89.8621   12.5389 C.3     1  UNL1        0.1278
     34 C          63.4934   90.6191   13.4323 C.ar    1  UNL1        0.0320
     35 C          63.3273   90.5533   14.9216 C.ar    1  UNL1        0.1363
     36 C          64.2648   91.3103   15.8150 C.ar    1  UNL1        0.0366
     37 C          65.3684   92.1330   15.2190 C.ar    1  UNL1        0.0031
     38 C          65.5344   92.1988   13.7296 C.ar    1  UNL1       -0.0001
     39 C          66.6380   93.0216   13.1337 C.ar    1  UNL1       -0.0000
     40 C          66.8040   93.0874   11.6443 C.ar    1  UNL1       -0.0000
     41 C          65.8665   92.3304   10.7509 C.ar    1  UNL1       -0.0000
     42 C          64.7630   91.5077   11.3470 C.ar    1  UNL1       -0.0002
     43 C          64.5969   91.4419   12.8362 C.ar    1  UNL1        0.0006
     44 O          62.2237   89.7306   15.5176 O.3     1  UNL1       -0.4717
     45 C          62.0943   88.9082   16.7654 C.3     1  UNL1        0.2525
@<TRIPOS>BOND
     1    30    31    1
     2    31    28    1
     3    28    29    1
     4    28    24    1
     5    24    25    2
     6    24    26   am
     7     1    26    1
     8     1     2    1
     9     2     3    1
    10     3     4   am
    11     4     5    2
    12     4    15    1
    13    15    16   ar
    14    16    17   ar
    15    17    18   ar
    16    18    19    1
    17    18    20   ar
    18    20    21   ar
    19     3     6    1
    20     6     7   ar
    21     7     8   ar
    22     8     9   ar
    23     9    10   ar
    24    10    11   ar
    25    11    12    1
    26    12    33    1
    27    33    34    1
    28    34    35   ar
    29    35    44    1
    30    44    45    1
    31    35    36   ar
    32    36    37   ar
    33    37    38   ar
    34    38    39   ar
    35    39    40   ar
    36    40    41   ar
    37    41    42   ar
    38    42    43   ar
    39    12    13   am
    40    13    14    2
    41    13     1    1
    42    21    15   ar
    43    11     6   ar
    44    43    34   ar
    45    43    38   ar
    46    31    32    1
    47    26    27    1
    48    19    22    1
    49    19    23    1
