@<TRIPOS>MOLECULE
*****
 57 62 0 0 0
SMALL
GASTEIGER

@<TRIPOS>ATOM
      1 C          60.9061   90.0923   11.1540 C.2     1  UNL1        0.3354
      2 O          59.7211   90.9044   11.5854 O.2     1  UNL1       -0.2483
      3 C          62.2757   90.7038   11.1575 C.3     1  UNL1        0.1746
      4 C          62.7271   91.5394    9.9965 C.3     1  UNL1        0.0314
      5 C          64.0968   92.1509   10.0001 C.3     1  UNL1        0.0040
      6 C          65.0151   91.9268   11.1647 C.3     1  UNL1        0.0216
      7 C          64.5638   91.0912   12.3258 C.3     1  UNL1        0.0939
      8 N          63.1941   90.4797   12.3222 N.am    1  UNL1       -0.2712
      9 C          62.7428   89.6441   13.4833 C.2     1  UNL1        0.2296
     10 O          61.3731   89.0326   13.4796 O.2     1  UNL1       -0.2745
     11 C          63.6611   89.4200   14.6479 C.3     1  UNL1        0.0991
     12 C          63.6728   88.0943   15.3496 C.3     1  UNL1        0.0127
     13 C          62.9707   87.9361   16.6657 C.3     1  UNL1        0.0008
     14 C          62.9824   86.6104   17.3674 C.3     1  UNL1        0.0000
     15 C          63.6961   85.4429   16.7529 C.3     1  UNL1        0.0000
     16 C          64.3981   85.6011   15.4368 C.3     1  UNL1        0.0000
     17 C          64.3864   86.9268   14.7351 C.3     1  UNL1        0.0008
     18 C          64.5678   90.5216   15.1109 C.ar    1  UNL1       -0.0076
     19 C          65.9571   90.6325   14.5563 C.ar    1  UNL1        0.0365
     20 C          66.8638   91.7340   15.0193 C.ar    1  UNL1        0.1751
     21 C          66.3813   92.7248   16.0368 C.ar    1  UNL1        0.2060
     22 C          64.9920   92.6139   16.5915 C.ar    1  UNL1        0.1751
     23 C          64.0853   91.5124   16.1285 C.ar    1  UNL1        0.0365
     24 O          68.2531   91.8449   14.4647 O.3     1  UNL1       -0.4683
     25 C          68.4814   91.7357   12.9862 C.3     1  UNL1        0.2526
     26 O          67.2880   93.8264   16.4999 O.3     1  UNL1       -0.4654
     27 C          68.6882   93.9179   15.9699 C.3     1  UNL1        0.2528
     28 O          64.5094   93.6048   17.6091 O.3     1  UNL1       -0.4683
     29 C          63.0795   94.0576   17.5956 C.3     1  UNL1        0.2526
     30 O          60.7214   88.6687   10.7190 O.3     1  UNL1       -0.4465
     31 C          60.4945   88.3504    9.2708 C.3     1  UNL1        0.1916
     32 C          61.0639   87.0943    8.6808 C.ar    1  UNL1        0.0203
     33 C          60.4552   86.5038    7.4436 C.ar    1  UNL1       -0.0006
     34 C          61.0247   85.2477    6.8536 C.ar    1  UNL1        0.0029
     35 C          62.2029   84.5822    7.5009 C.ar    1  UNL1        0.0369
     36 C          62.8116   85.1727    8.7381 C.ar    1  UNL1        0.1403
     37 C          62.2421   86.4287    9.3281 C.ar    1  UNL1        0.0361
     38 O          63.9898   84.5072    9.3854 O.3     1  UNL1       -0.4582
     39 C          63.8669   83.1057    9.9060 C.3     1  UNL1        0.2847
     40 N          63.2965   82.8602   11.2714 N.3     1  UNL1       -0.2308
     41 C          63.0428   81.4571   11.7370 C.3     1  UNL1        0.1075
     42 C          62.4723   81.2116   13.1024 C.3     1  UNL1        0.1596
     43 O          62.1556   82.3691   14.0022 O.3     1  UNL1       -0.3508
     44 C          62.4093   83.7723   13.5366 C.3     1  UNL1        0.1596
     45 C          62.9797   84.0179   12.1712 C.3     1  UNL1        0.1075
     46 C          59.6981   89.2881    8.4127 C.3     1  UNL1        0.0530
     47 C          59.4945   88.9836    6.9581 C.3     1  UNL1        0.0305
     48 C          59.6020   92.3080    3.9270 C.ar    1  UNL1        0.1724
     49 C          58.3032   91.9207    4.5697 C.ar    1  UNL1        0.0397
     50 C          58.2673   90.8126    5.5800 C.ar    1  UNL1       -0.0009
     51 C          59.5303   90.0918    5.9477 C.ar    1  UNL1       -0.0188
     52 C          60.8291   90.4790    5.3051 C.ar    1  UNL1        0.0358
     53 C          60.8650   91.5871    4.2947 C.ar    1  UNL1        0.1721
     54 C          59.6581   93.0949    1.4517 C.3     1  UNL1        0.2526
     55 O          59.6378   93.4161    2.9167 O.3     1  UNL1       -0.4684
     56 O          62.1639   91.9744    3.6521 O.3     1  UNL1       -0.4684
     57 C          63.1491   90.9155    3.2547 C.3     1  UNL1        0.2526
@<TRIPOS>BOND
     1    54    55    1
     2    55    48    1
     3    48    49   ar
     4    49    50   ar
     5    50    51   ar
     6    51    47    1
     7    47    46    1
     8    31    46    1
     9    31    30    1
    10    30     1    1
    11     1     2    2
    12     3     1    1
    13     3     4    1
    14     4     5    1
    15     5     6    1
    16     6     7    1
    17     7     8    1
    18     8     9   am
    19     9    10    2
    20     9    11    1
    21    11    18    1
    22    18    19   ar
    23    19    20   ar
    24    20    24    1
    25    24    25    1
    26    20    21   ar
    27    21    26    1
    28    26    27    1
    29    21    22   ar
    30    22    28    1
    31    28    29    1
    32    22    23   ar
    33    11    12    1
    34    12    13    1
    35    13    14    1
    36    14    15    1
    37    15    16    1
    38    16    17    1
    39    31    32    1
    40    32    33   ar
    41    33    34   ar
    42    34    35   ar
    43    35    36   ar
    44    36    38    1
    45    38    39    1
    46    39    40    1
    47    40    41    1
    48    41    42    1
    49    42    43    1
    50    43    44    1
    51    44    45    1
    52    36    37   ar
    53    51    52   ar
    54    52    53   ar
    55    53    56    1
    56    56    57    1
    57    53    48   ar
    58     8     3    1
    59    23    18   ar
    60    17    12    1
    61    37    32   ar
    62    45    40    1
@<TRIPOS>MOLECULE
*****
 57 62 0 0 0
SMALL
GASTEIGER

@<TRIPOS>ATOM
      1 C          60.6799   90.1848   11.4294 C.2     1  UNL1        0.3354
      2 O          59.5224   91.1372   11.4828 O.2     1  UNL1       -0.2483
      3 C          62.0808   90.7117   11.3298 C.3     1  UNL1        0.1746
      4 C          62.5064   91.4861   10.1178 C.3     1  UNL1        0.0314
      5 C          63.9073   92.0130   10.0182 C.3     1  UNL1        0.0040
      6 C          64.8825   91.7655   11.1308 C.3     1  UNL1        0.0216
      7 C          64.4569   90.9911   12.3428 C.3     1  UNL1        0.0939
      8 N          63.0560   90.4642   12.4424 N.am    1  UNL1       -0.2712
      9 C          62.6304   89.6898   13.6545 C.2     1  UNL1        0.2296
     10 O          61.2294   89.1629   13.7540 O.2     1  UNL1       -0.2745
     11 C          63.6056   89.4424   14.7670 C.3     1  UNL1        0.0991
     12 C          63.6465   88.1049   15.4448 C.3     1  UNL1        0.0127
     13 C          62.9467   87.9072   16.7568 C.3     1  UNL1        0.0008
     14 C          62.9877   86.5697   17.4346 C.3     1  UNL1        0.0000
     15 C          63.7285   85.4299   16.8004 C.3     1  UNL1        0.0000
     16 C          64.4282   85.6276   15.4885 C.3     1  UNL1        0.0000
     17 C          64.3872   86.9651   14.8107 C.3     1  UNL1        0.0008
     18 C          64.5398   90.5324   15.2018 C.ar    1  UNL1       -0.0076
     19 C          64.0762   91.5724   16.1782 C.ar    1  UNL1        0.0365
     20 C          65.0104   92.6625   16.6130 C.ar    1  UNL1        0.1751
     21 C          66.4082   92.7125   16.0713 C.ar    1  UNL1        0.2060
     22 C          66.8719   91.6725   15.0949 C.ar    1  UNL1        0.1751
     23 C          65.9377   90.5824   14.6601 C.ar    1  UNL1        0.0365
     24 O          64.5467   93.7025   17.5894 O.3     1  UNL1       -0.4683
     25 C          63.1011   94.1003   17.6313 C.3     1  UNL1        0.2526
     26 O          67.3425   93.8025   16.5061 O.3     1  UNL1       -0.4654
     27 C          68.7304   93.8705   15.9411 C.3     1  UNL1        0.2528
     28 O          68.2699   91.7225   14.5533 O.3     1  UNL1       -0.4683
     29 C          68.4978   91.8456   13.0758 C.3     1  UNL1        0.2526
     30 O          60.4366   88.7053   11.4756 O.3     1  UNL1       -0.4465
     31 C          61.1880   87.7925   10.5525 C.3     1  UNL1        0.1916
     32 C          60.6226   87.4583    9.2039 C.ar    1  UNL1        0.0203
     33 C          60.7090   86.0550    8.6813 C.ar    1  UNL1       -0.0006
     34 C          60.1435   85.7207    7.3327 C.ar    1  UNL1        0.0029
     35 C          59.4917   86.7898    6.5068 C.ar    1  UNL1        0.0369
     36 C          59.4054   88.1932    7.0295 C.ar    1  UNL1        0.1403
     37 C          59.9708   88.5274    8.3780 C.ar    1  UNL1        0.0361
     38 O          58.7536   89.2624    6.2036 O.3     1  UNL1       -0.4582
     39 C          59.2566   90.6739    6.2718 C.3     1  UNL1        0.2847
     40 N          59.8861   91.3048    5.0653 N.3     1  UNL1       -0.2308
     41 C          61.2905   90.9471    4.6785 C.3     1  UNL1        0.1075
     42 C          61.9200   91.5780    3.4720 C.3     1  UNL1        0.1596
     43 O          61.1452   92.5667    2.6523 O.3     1  UNL1       -0.3508
     44 C          59.7407   92.9245    3.0390 C.3     1  UNL1        0.1596
     45 C          59.1112   92.2936    4.2455 C.3     1  UNL1        0.1075
     46 C          62.5049   87.2139   10.9780 C.3     1  UNL1        0.0530
     47 C          62.5768   86.3143   12.1761 C.3     1  UNL1        0.0305
     48 C          63.0289   81.8706   11.6294 C.ar    1  UNL1        0.1724
     49 C          63.3749   82.8034   10.5068 C.ar    1  UNL1        0.0397
     50 C          63.2242   84.2846   10.6891 C.ar    1  UNL1       -0.0009
     51 C          62.7275   84.8331   11.9939 C.ar    1  UNL1       -0.0188
     52 C          62.3815   83.9002   13.1164 C.ar    1  UNL1        0.0358
     53 C          62.5322   82.4190   12.9341 C.ar    1  UNL1        0.1721
     54 C          62.8623   79.7605   10.1228 C.3     1  UNL1        0.2526
     55 O          63.1796   80.3893   11.4471 O.3     1  UNL1       -0.4684
     56 O          62.1862   81.4862   14.0567 O.3     1  UNL1       -0.4684
     57 C          60.8827   80.7441   14.0405 C.3     1  UNL1        0.2526
@<TRIPOS>BOND
     1    54    55    1
     2    55    48    1
     3    48    49   ar
     4    49    50   ar
     5    50    51   ar
     6    51    47    1
     7    47    46    1
     8    31    46    1
     9    31    30    1
    10    30     1    1
    11     1     2    2
    12     3     1    1
    13     3     4    1
    14     4     5    1
    15     5     6    1
    16     6     7    1
    17     7     8    1
    18     8     9   am
    19     9    10    2
    20     9    11    1
    21    11    18    1
    22    18    19   ar
    23    19    20   ar
    24    20    24    1
    25    24    25    1
    26    20    21   ar
    27    21    26    1
    28    26    27    1
    29    21    22   ar
    30    22    28    1
    31    28    29    1
    32    22    23   ar
    33    11    12    1
    34    12    13    1
    35    13    14    1
    36    14    15    1
    37    15    16    1
    38    16    17    1
    39    31    32    1
    40    32    33   ar
    41    33    34   ar
    42    34    35   ar
    43    35    36   ar
    44    36    38    1
    45    38    39    1
    46    39    40    1
    47    40    41    1
    48    41    42    1
    49    42    43    1
    50    43    44    1
    51    44    45    1
    52    36    37   ar
    53    51    52   ar
    54    52    53   ar
    55    53    56    1
    56    56    57    1
    57    53    48   ar
    58     8     3    1
    59    23    18   ar
    60    17    12    1
    61    37    32   ar
    62    45    40    1
@<TRIPOS>MOLECULE
*****
 57 62 0 0 0
SMALL
GASTEIGER

@<TRIPOS>ATOM
      1 C          60.6170   90.2240   11.4697 C.2     1  UNL1        0.3354
      2 O          59.4815   91.1965   11.5901 O.2     1  UNL1       -0.2483
      3 C          62.0245   90.7265   11.3417 C.3     1  UNL1        0.1746
      4 C          62.4407   91.4877   10.1179 C.3     1  UNL1        0.0314
      5 C          63.8482   91.9903    9.9899 C.3     1  UNL1        0.0040
      6 C          64.8395   91.7317   11.0855 C.3     1  UNL1        0.0216
      7 C          64.4233   90.9706   12.3092 C.3     1  UNL1        0.0939
      8 N          63.0159   90.4680   12.4373 N.am    1  UNL1       -0.2712
      9 C          62.5997   89.7068   13.6610 C.2     1  UNL1        0.2296
     10 O          61.1922   89.2042   13.7891 O.2     1  UNL1       -0.2745
     11 C          63.5910   89.4483   14.7567 C.3     1  UNL1        0.0991
     12 C          63.6592   88.0962   15.4027 C.3     1  UNL1        0.0127
     13 C          62.9801   87.8588   16.7189 C.3     1  UNL1        0.0008
     14 C          63.0483   86.5067   17.3649 C.3     1  UNL1        0.0000
     15 C          63.7957   85.3921   16.6946 C.3     1  UNL1        0.0000
     16 C          64.4748   85.6296   15.3785 C.3     1  UNL1        0.0000
     17 C          64.4066   86.9817   14.7325 C.3     1  UNL1        0.0008
     18 C          64.5141   90.5418   15.2063 C.ar    1  UNL1       -0.0076
     19 C          65.9034   90.6276   14.6473 C.ar    1  UNL1        0.0365
     20 C          66.8265   91.7211   15.0970 C.ar    1  UNL1        0.1751
     21 C          66.3603   92.7287   16.1056 C.ar    1  UNL1        0.2060
     22 C          64.9710   92.6428   16.6646 C.ar    1  UNL1        0.1751
     23 C          64.0479   91.5494   16.2150 C.ar    1  UNL1        0.0365
     24 O          68.2158   91.8069   14.5380 O.3     1  UNL1       -0.4683
     25 C          68.4343   91.7267   13.0562 C.3     1  UNL1        0.2526
     26 O          67.2835   93.8222   16.5553 O.3     1  UNL1       -0.4654
     27 C          68.6323   93.9747   15.9172 C.3     1  UNL1        0.2528
     28 O          64.5049   93.6505   17.6733 O.3     1  UNL1       -0.4683
     29 C          63.0862   94.1368   17.6471 C.3     1  UNL1        0.2526
     30 O          60.3452   88.7488   11.4775 O.3     1  UNL1       -0.4465
     31 C          61.1111   87.8402   10.5622 C.3     1  UNL1        0.1916
     32 C          60.5562   87.4941    9.2122 C.ar    1  UNL1        0.0203
     33 C          60.5463   86.0676    8.7486 C.ar    1  UNL1       -0.0006
     34 C          59.9914   85.7216    7.3986 C.ar    1  UNL1        0.0029
     35 C          59.4463   86.8020    6.5123 C.ar    1  UNL1        0.0369
     36 C          59.4562   88.2286    6.9760 C.ar    1  UNL1        0.1403
     37 C          60.0111   88.5746    8.3259 C.ar    1  UNL1        0.0361
     38 O          58.9112   89.3090    6.0897 O.3     1  UNL1       -0.4582
     39 C          59.4651   90.7004    6.1759 C.3     1  UNL1        0.2847
     40 N          59.9833   91.3791    4.9427 N.3     1  UNL1       -0.2308
     41 C          59.0716   92.2432    4.1229 C.3     1  UNL1        0.1075
     42 C          59.5898   92.9218    2.8897 C.3     1  UNL1        0.1596
     43 O          61.0197   92.7364    2.4762 O.3     1  UNL1       -0.3508
     44 C          61.9315   91.8722    3.2960 C.3     1  UNL1        0.1596
     45 C          61.4133   91.1936    4.5293 C.3     1  UNL1        0.1075
     46 C          62.4319   87.2777   10.9968 C.3     1  UNL1        0.0530
     47 C          62.4915   86.2855   12.1202 C.3     1  UNL1        0.0305
     48 C          63.1593   81.9239   11.2372 C.ar    1  UNL1        0.1724
     49 C          63.5305   82.9607   10.2188 C.ar    1  UNL1        0.0397
     50 C          63.3078   84.4146   10.5131 C.ar    1  UNL1       -0.0009
     51 C          62.7141   84.8317   11.8259 C.ar    1  UNL1       -0.0188
     52 C          62.3430   83.7949   12.8443 C.ar    1  UNL1        0.0358
     53 C          62.5656   82.3410   12.5500 C.ar    1  UNL1        0.1721
     54 C          62.7596   79.8467    9.7287 C.3     1  UNL1        0.2526
     55 O          63.3819   80.4700   10.9428 O.3     1  UNL1       -0.4684
     56 O          62.1944   81.3041   13.5685 O.3     1  UNL1       -0.4684
     57 C          63.2642   80.4916   14.2358 C.3     1  UNL1        0.2526
@<TRIPOS>BOND
     1    54    55    1
     2    55    48    1
     3    48    49   ar
     4    49    50   ar
     5    50    51   ar
     6    51    47    1
     7    47    46    1
     8    31    46    1
     9    31    30    1
    10    30     1    1
    11     1     2    2
    12     3     1    1
    13     3     4    1
    14     4     5    1
    15     5     6    1
    16     6     7    1
    17     7     8    1
    18     8     9   am
    19     9    10    2
    20     9    11    1
    21    11    18    1
    22    18    19   ar
    23    19    20   ar
    24    20    24    1
    25    24    25    1
    26    20    21   ar
    27    21    26    1
    28    26    27    1
    29    21    22   ar
    30    22    28    1
    31    28    29    1
    32    22    23   ar
    33    11    12    1
    34    12    13    1
    35    13    14    1
    36    14    15    1
    37    15    16    1
    38    16    17    1
    39    31    32    1
    40    32    33   ar
    41    33    34   ar
    42    34    35   ar
    43    35    36   ar
    44    36    38    1
    45    38    39    1
    46    39    40    1
    47    40    41    1
    48    41    42    1
    49    42    43    1
    50    43    44    1
    51    44    45    1
    52    36    37   ar
    53    51    52   ar
    54    52    53   ar
    55    53    56    1
    56    56    57    1
    57    53    48   ar
    58     8     3    1
    59    23    18   ar
    60    17    12    1
    61    37    32   ar
    62    45    40    1
@<TRIPOS>MOLECULE
*****
 57 62 0 0 0
SMALL
GASTEIGER

@<TRIPOS>ATOM
      1 C          60.4098   89.5475   12.3226 C.2     1  UNL1        0.3354
      2 O          59.1336   89.1272   12.9894 O.2     1  UNL1       -0.2483
      3 C          61.7200   88.9860   12.7895 C.3     1  UNL1        0.1746
      4 C          62.5477   89.7424   13.7859 C.3     1  UNL1        0.0314
      5 C          63.8580   89.1808   14.2528 C.3     1  UNL1        0.0040
      6 C          64.3405   87.8630   13.7232 C.3     1  UNL1        0.0216
      7 C          63.5128   87.1067   12.7268 C.3     1  UNL1        0.0939
      8 N          62.2026   87.6681   12.2600 N.am    1  UNL1       -0.2712
      9 C          61.3749   86.9118   11.2635 C.2     1  UNL1        0.2296
     10 O          60.0646   87.4733   10.7967 O.2     1  UNL1       -0.2745
     11 C          61.8574   85.5939   10.7340 C.3     1  UNL1        0.0991
     12 C          61.9721   85.3769    9.2542 C.3     1  UNL1        0.0127
     13 C          63.3027   85.0465    8.6455 C.3     1  UNL1        0.0008
     14 C          63.4173   84.8294    7.1658 C.3     1  UNL1        0.0000
     15 C          62.2014   84.9427    6.2947 C.3     1  UNL1        0.0000
     16 C          60.8709   85.2731    6.9034 C.3     1  UNL1        0.0000
     17 C          60.7562   85.4902    8.3831 C.3     1  UNL1        0.0008
     18 C          62.2253   84.4931   11.6842 C.ar    1  UNL1       -0.0076
     19 C          62.2178   84.7450   13.1629 C.ar    1  UNL1        0.0365
     20 C          62.5856   83.6443   14.1132 C.ar    1  UNL1        0.1751
     21 C          62.9611   82.2916   13.5847 C.ar    1  UNL1        0.2060
     22 C          62.9687   82.0397   12.1060 C.ar    1  UNL1        0.1751
     23 C          62.6008   83.1404   11.1558 C.ar    1  UNL1        0.0365
     24 O          62.5781   83.8962   15.5918 O.3     1  UNL1       -0.4683
     25 C          63.3389   85.0579   16.1586 C.3     1  UNL1        0.2526
     26 O          63.3290   81.1908   14.5349 O.3     1  UNL1       -0.4654
     27 C          62.6569   79.8539   14.4303 C.3     1  UNL1        0.2528
     28 O          63.3442   80.6870   11.5776 O.3     1  UNL1       -0.4683
     29 C          62.9563   80.2923   10.1834 C.3     1  UNL1        0.2526
     30 O          60.3758   90.5292   11.1891 O.3     1  UNL1       -0.4465
     31 C          61.1503   90.2534    9.9345 C.3     1  UNL1        0.1916
     32 C          60.4293   89.8607    8.6790 C.ar    1  UNL1        0.0203
     33 C          59.6038   88.6087    8.6486 C.ar    1  UNL1       -0.0006
     34 C          58.8828   88.2160    7.3931 C.ar    1  UNL1        0.0029
     35 C          58.9875   89.0753    6.1681 C.ar    1  UNL1        0.0369
     36 C          59.8131   90.3274    6.1986 C.ar    1  UNL1        0.1403
     37 C          60.5340   90.7200    7.4540 C.ar    1  UNL1        0.0361
     38 O          59.9178   91.1867    4.9736 O.3     1  UNL1       -0.4582
     39 C          61.2381   91.3458    4.2797 C.3     1  UNL1        0.2847
     40 N          61.3811   92.3290    3.1559 N.3     1  UNL1       -0.2308
     41 C          62.7102   92.5142    2.4859 C.3     1  UNL1        0.1075
     42 C          62.8531   93.4973    1.3621 C.3     1  UNL1        0.1596
     43 O          61.6669   94.2954    0.9083 O.3     1  UNL1       -0.3508
     44 C          60.3377   94.1103    1.5784 C.3     1  UNL1        0.1596
     45 C          60.1947   93.1271    2.7022 C.3     1  UNL1        0.1075
     46 C          62.6457   90.3702    9.9353 C.3     1  UNL1        0.0530
     47 C          63.2923   91.7232    9.9726 C.3     1  UNL1        0.0305
     48 C          66.8819   92.4301   12.5927 C.ar    1  UNL1        0.1724
     49 C          65.5573   92.0926   13.2103 C.ar    1  UNL1        0.0397
     50 C          64.3608   91.8570   12.3369 C.ar    1  UNL1       -0.0009
     51 C          64.4888   91.9588   10.8459 C.ar    1  UNL1       -0.0188
     52 C          65.8134   92.2963   10.2283 C.ar    1  UNL1        0.0358
     53 C          67.0099   92.5319   11.1016 C.ar    1  UNL1        0.1721
     54 C          68.0345   92.2867   14.9166 C.3     1  UNL1        0.2526
     55 O          68.0784   92.6657   13.4660 O.3     1  UNL1       -0.4684
     56 O          68.3346   92.8694   10.4839 O.3     1  UNL1       -0.4684
     57 C          68.6213   92.4791    9.0643 C.3     1  UNL1        0.2526
@<TRIPOS>BOND
     1    54    55    1
     2    55    48    1
     3    48    49   ar
     4    49    50   ar
     5    50    51   ar
     6    51    47    1
     7    47    46    1
     8    31    46    1
     9    31    30    1
    10    30     1    1
    11     1     2    2
    12     3     1    1
    13     3     4    1
    14     4     5    1
    15     5     6    1
    16     6     7    1
    17     7     8    1
    18     8     9   am
    19     9    10    2
    20     9    11    1
    21    11    18    1
    22    18    19   ar
    23    19    20   ar
    24    20    24    1
    25    24    25    1
    26    20    21   ar
    27    21    26    1
    28    26    27    1
    29    21    22   ar
    30    22    28    1
    31    28    29    1
    32    22    23   ar
    33    11    12    1
    34    12    13    1
    35    13    14    1
    36    14    15    1
    37    15    16    1
    38    16    17    1
    39    31    32    1
    40    32    33   ar
    41    33    34   ar
    42    34    35   ar
    43    35    36   ar
    44    36    38    1
    45    38    39    1
    46    39    40    1
    47    40    41    1
    48    41    42    1
    49    42    43    1
    50    43    44    1
    51    44    45    1
    52    36    37   ar
    53    51    52   ar
    54    52    53   ar
    55    53    56    1
    56    56    57    1
    57    53    48   ar
    58     8     3    1
    59    23    18   ar
    60    17    12    1
    61    37    32   ar
    62    45    40    1
@<TRIPOS>MOLECULE
*****
 57 62 0 0 0
SMALL
GASTEIGER

@<TRIPOS>ATOM
      1 C          61.8193   90.3188   10.4389 C.2     1  UNL1        0.3354
      2 O          60.5701   90.5023   11.2486 O.2     1  UNL1       -0.2483
      3 C          63.0541   91.1001   10.7777 C.3     1  UNL1        0.1746
      4 C          63.5556   92.1554    9.8370 C.3     1  UNL1        0.0314
      5 C          64.7904   92.9368   10.1758 C.3     1  UNL1        0.0040
      6 C          65.5237   92.6628   11.4553 C.3     1  UNL1        0.0216
      7 C          65.0222   91.6075   12.3960 C.3     1  UNL1        0.0939
      8 N          63.7875   90.8262   12.0573 N.am    1  UNL1       -0.2712
      9 C          63.2860   89.7709   12.9980 C.2     1  UNL1        0.2296
     10 O          62.0512   88.9896   12.6591 O.2     1  UNL1       -0.2745
     11 C          64.0193   89.4970   14.2775 C.3     1  UNL1        0.0991
     12 C          63.8806   88.1638   14.9508 C.3     1  UNL1        0.0127
     13 C          63.2260   88.0680   16.2970 C.3     1  UNL1        0.0008
     14 C          63.0873   86.7348   16.9703 C.3     1  UNL1        0.0000
     15 C          63.6032   85.4974   16.2974 C.3     1  UNL1        0.0000
     16 C          64.2578   85.5933   14.9512 C.3     1  UNL1        0.0000
     17 C          64.3965   86.9265   14.2779 C.3     1  UNL1        0.0008
     18 C          64.8914   90.5563   14.8837 C.ar    1  UNL1       -0.0076
     19 C          64.3323   91.4856   15.9199 C.ar    1  UNL1        0.0365
     20 C          65.2043   92.5448   16.5262 C.ar    1  UNL1        0.1751
     21 C          66.6354   92.6748   16.0962 C.ar    1  UNL1        0.2060
     22 C          67.1945   91.7454   15.0600 C.ar    1  UNL1        0.1751
     23 C          66.3226   90.6862   14.4538 C.ar    1  UNL1        0.0365
     24 O          64.6451   93.4741   17.5624 O.3     1  UNL1       -0.4683
     25 C          63.1989   93.8691   17.5135 C.3     1  UNL1        0.2526
     26 O          67.5075   93.7340   16.7025 O.3     1  UNL1       -0.4654
     27 C          68.7021   94.2425   15.9513 C.3     1  UNL1        0.2528
     28 O          68.6258   91.8754   14.6301 O.3     1  UNL1       -0.4683
     29 C          68.9927   91.7105   13.1850 C.3     1  UNL1        0.2526
     30 O          61.8338   89.3540    9.2905 O.3     1  UNL1       -0.4465
     31 C          60.5465   88.7826    8.7747 C.3     1  UNL1        0.1916
     32 C          59.8791   89.3961    7.5795 C.ar    1  UNL1        0.0203
     33 C          58.4194   89.1567    7.3304 C.ar    1  UNL1       -0.0006
     34 C          57.7521   89.7702    6.1353 C.ar    1  UNL1        0.0029
     35 C          58.5444   90.6231    5.1893 C.ar    1  UNL1        0.0369
     36 C          60.0041   90.8625    5.4385 C.ar    1  UNL1        0.1403
     37 C          60.6714   90.2490    6.6336 C.ar    1  UNL1        0.0361
     38 O          60.7964   91.7153    4.4926 O.3     1  UNL1       -0.4582
     39 C          60.0925   92.6709    3.5752 C.3     1  UNL1        0.2847
     40 N          60.7505   93.1092    2.3005 N.3     1  UNL1       -0.2308
     41 C          59.9379   93.7662    1.2244 C.3     1  UNL1        0.1075
     42 C          60.5959   94.2045   -0.0503 C.3     1  UNL1        0.1596
     43 O          62.0665   93.9858   -0.2490 O.3     1  UNL1       -0.3508
     44 C          62.8792   93.3288    0.8272 C.3     1  UNL1        0.1596
     45 C          62.2212   92.8905    2.1019 C.3     1  UNL1        0.1075
     46 C          59.9264   87.5976    9.4539 C.3     1  UNL1        0.0530
     47 C          60.5452   87.0393   10.7010 C.3     1  UNL1        0.0305
     48 C          63.5812   83.7297   10.4190 C.ar    1  UNL1        0.1724
     49 C          63.1974   84.5020    9.1918 C.ar    1  UNL1        0.0397
     50 C          62.1854   85.6052    9.2858 C.ar    1  UNL1       -0.0009
     51 C          61.5572   85.9361   10.6070 C.ar    1  UNL1       -0.0188
     52 C          61.9410   85.1638   11.8343 C.ar    1  UNL1        0.0358
     53 C          62.9530   84.0606   11.7403 C.ar    1  UNL1        0.1721
     54 C          64.1479   81.1948   10.3656 C.3     1  UNL1        0.2526
     55 O          64.5932   82.6265   10.3251 O.3     1  UNL1       -0.4684
     56 O          63.3368   83.2883   12.9677 O.3     1  UNL1       -0.4684
     57 C          62.3877   82.2821   13.5479 C.3     1  UNL1        0.2526
@<TRIPOS>BOND
     1    54    55    1
     2    55    48    1
     3    48    49   ar
     4    49    50   ar
     5    50    51   ar
     6    51    47    1
     7    47    46    1
     8    31    46    1
     9    31    30    1
    10    30     1    1
    11     1     2    2
    12     3     1    1
    13     3     4    1
    14     4     5    1
    15     5     6    1
    16     6     7    1
    17     7     8    1
    18     8     9   am
    19     9    10    2
    20     9    11    1
    21    11    18    1
    22    18    19   ar
    23    19    20   ar
    24    20    24    1
    25    24    25    1
    26    20    21   ar
    27    21    26    1
    28    26    27    1
    29    21    22   ar
    30    22    28    1
    31    28    29    1
    32    22    23   ar
    33    11    12    1
    34    12    13    1
    35    13    14    1
    36    14    15    1
    37    15    16    1
    38    16    17    1
    39    31    32    1
    40    32    33   ar
    41    33    34   ar
    42    34    35   ar
    43    35    36   ar
    44    36    38    1
    45    38    39    1
    46    39    40    1
    47    40    41    1
    48    41    42    1
    49    42    43    1
    50    43    44    1
    51    44    45    1
    52    36    37   ar
    53    51    52   ar
    54    52    53   ar
    55    53    56    1
    56    56    57    1
    57    53    48   ar
    58     8     3    1
    59    23    18   ar
    60    17    12    1
    61    37    32   ar
    62    45    40    1
@<TRIPOS>MOLECULE
*****
 57 62 0 0 0
SMALL
GASTEIGER

@<TRIPOS>ATOM
      1 C          59.7755   87.2375    9.1662 C.2     1  UNL1        0.3354
      2 O          58.3536   86.9320    8.7993 O.2     1  UNL1       -0.2483
      3 C          60.8796   86.3318    8.7073 C.3     1  UNL1        0.1746
      4 C          61.1159   86.1206    7.2412 C.3     1  UNL1        0.0314
      5 C          62.2200   85.2148    6.7822 C.3     1  UNL1        0.0040
      6 C          63.0879   84.5204    7.7894 C.3     1  UNL1        0.0216
      7 C          62.8517   84.7316    9.2556 C.3     1  UNL1        0.0939
      8 N          61.7476   85.6373    9.7145 N.am    1  UNL1       -0.2712
      9 C          61.5113   85.8485   11.1807 C.2     1  UNL1        0.2296
     10 O          60.4071   86.7542   11.6396 O.2     1  UNL1       -0.2745
     11 C          62.3792   85.1540   12.1879 C.3     1  UNL1        0.0991
     12 C          63.2454   85.9573   13.1123 C.3     1  UNL1        0.0127
     13 C          64.0007   85.2751   14.2143 C.3     1  UNL1        0.0008
     14 C          64.8669   86.0784   15.1387 C.3     1  UNL1        0.0000
     15 C          64.9778   87.5637   14.9610 C.3     1  UNL1        0.0000
     16 C          64.2226   88.2458   13.8590 C.3     1  UNL1        0.0000
     17 C          63.3564   87.4425   12.9347 C.3     1  UNL1        0.0008
     18 C          62.3808   83.6563   12.2707 C.ar    1  UNL1       -0.0076
     19 C          61.6685   82.9666   13.3964 C.ar    1  UNL1        0.0365
     20 C          61.6702   81.4690   13.4793 C.ar    1  UNL1        0.1751
     21 C          62.3841   80.6609   12.4365 C.ar    1  UNL1        0.2060
     22 C          63.0964   81.3506   11.3109 C.ar    1  UNL1        0.1751
     23 C          63.0948   82.8482   11.2280 C.ar    1  UNL1        0.0365
     24 O          60.9579   80.7793   14.6049 O.3     1  UNL1       -0.4683
     25 C          59.5683   80.2522   14.4020 C.3     1  UNL1        0.2526
     26 O          62.3858   79.1632   12.5194 O.3     1  UNL1       -0.4654
     27 C          62.7096   78.4842   13.8171 C.3     1  UNL1        0.2528
     28 O          63.8104   80.5424   10.2682 O.3     1  UNL1       -0.4683
     29 C          63.0925   79.4341    9.5567 C.3     1  UNL1        0.2526
     30 O          60.0934   88.4486    9.9922 O.3     1  UNL1       -0.4465
     31 C          61.0591   89.4747    9.4780 C.3     1  UNL1        0.1916
     32 C          61.9737   90.1872   10.4298 C.ar    1  UNL1        0.0203
     33 C          61.7423   90.0880   11.9085 C.ar    1  UNL1       -0.0006
     34 C          62.6569   90.8006   12.8602 C.ar    1  UNL1        0.0029
     35 C          63.8029   91.6123   12.3333 C.ar    1  UNL1        0.0369
     36 C          64.0344   91.7114   10.8545 C.ar    1  UNL1        0.1403
     37 C          63.1198   90.9989    9.9028 C.ar    1  UNL1        0.0361
     38 O          65.1804   92.5232   10.3275 O.3     1  UNL1       -0.4582
     39 C          65.8052   93.5837   11.1849 C.3     1  UNL1        0.2847
     40 N          66.6431   93.1953   12.3669 N.3     1  UNL1       -0.2308
     41 C          66.4755   93.9129   13.6733 C.3     1  UNL1        0.1075
     42 C          67.3134   93.5245   14.8553 C.3     1  UNL1        0.1596
     43 O          68.3189   92.4184   14.7308 O.3     1  UNL1       -0.3508
     44 C          68.4866   91.7008   13.4243 C.3     1  UNL1        0.1596
     45 C          67.6487   92.0892   12.2423 C.3     1  UNL1        0.1075
     46 C          61.1103   89.7883    8.0120 C.3     1  UNL1        0.0530
     47 C          59.8597   89.7213    7.1866 C.3     1  UNL1        0.0305
     48 C          59.4548   92.2757    3.5040 C.ar    1  UNL1        0.1724
     49 C          58.2397   91.9233    4.3097 C.ar    1  UNL1        0.0397
     50 C          58.3746   91.0719    5.5372 C.ar    1  UNL1       -0.0009
     51 C          59.7247   90.5728    5.9591 C.ar    1  UNL1       -0.0188
     52 C          60.9399   90.9251    5.1534 C.ar    1  UNL1        0.0358
     53 C          60.8049   91.7765    3.9259 C.ar    1  UNL1        0.1721
     54 C          60.2406   94.2926    2.0672 C.3     1  UNL1        0.2526
     55 O          59.3199   93.1271    2.2765 O.3     1  UNL1       -0.4684
     56 O          62.0202   92.1289    3.1202 O.3     1  UNL1       -0.4684
     57 C          63.2136   91.2201    3.1264 C.3     1  UNL1        0.2526
@<TRIPOS>BOND
     1    54    55    1
     2    55    48    1
     3    48    49   ar
     4    49    50   ar
     5    50    51   ar
     6    51    47    1
     7    47    46    1
     8    31    46    1
     9    31    30    1
    10    30     1    1
    11     1     2    2
    12     3     1    1
    13     3     4    1
    14     4     5    1
    15     5     6    1
    16     6     7    1
    17     7     8    1
    18     8     9   am
    19     9    10    2
    20     9    11    1
    21    11    18    1
    22    18    19   ar
    23    19    20   ar
    24    20    24    1
    25    24    25    1
    26    20    21   ar
    27    21    26    1
    28    26    27    1
    29    21    22   ar
    30    22    28    1
    31    28    29    1
    32    22    23   ar
    33    11    12    1
    34    12    13    1
    35    13    14    1
    36    14    15    1
    37    15    16    1
    38    16    17    1
    39    31    32    1
    40    32    33   ar
    41    33    34   ar
    42    34    35   ar
    43    35    36   ar
    44    36    38    1
    45    38    39    1
    46    39    40    1
    47    40    41    1
    48    41    42    1
    49    42    43    1
    50    43    44    1
    51    44    45    1
    52    36    37   ar
    53    51    52   ar
    54    52    53   ar
    55    53    56    1
    56    56    57    1
    57    53    48   ar
    58     8     3    1
    59    23    18   ar
    60    17    12    1
    61    37    32   ar
    62    45    40    1
@<TRIPOS>MOLECULE
*****
 57 62 0 0 0
SMALL
GASTEIGER

@<TRIPOS>ATOM
      1 C          59.8207   87.0429    8.8035 C.2     1  UNL1        0.3354
      2 O          58.4550   86.7780    8.2427 O.2     1  UNL1       -0.2483
      3 C          60.9725   86.1617    8.4207 C.3     1  UNL1        0.1746
      4 C          61.2794   85.9149    6.9733 C.3     1  UNL1        0.0314
      5 C          62.4313   85.0335    6.5905 C.3     1  UNL1        0.0040
      6 C          63.2763   84.3991    7.6550 C.3     1  UNL1        0.0216
      7 C          62.9695   84.6459    9.1024 C.3     1  UNL1        0.0939
      8 N          61.8176   85.5271    9.4853 N.am    1  UNL1       -0.2712
      9 C          61.5108   85.7739   10.9327 C.2     1  UNL1        0.2296
     10 O          60.3589   86.6552   11.3155 O.2     1  UNL1       -0.2745
     11 C          62.3558   85.1394   11.9972 C.3     1  UNL1        0.0991
     12 C          63.1850   85.9968   12.9068 C.3     1  UNL1        0.0127
     13 C          63.2747   87.4751   12.6684 C.3     1  UNL1        0.0008
     14 C          64.1039   88.3325   13.5780 C.3     1  UNL1        0.0000
     15 C          64.8433   87.7116   14.7260 C.3     1  UNL1        0.0000
     16 C          64.7535   86.2334   14.9644 C.3     1  UNL1        0.0000
     17 C          63.9244   85.3760   14.0548 C.3     1  UNL1        0.0008
     18 C          62.3717   83.6475   12.1523 C.ar    1  UNL1       -0.0076
     19 C          63.0884   82.7965   11.1462 C.ar    1  UNL1        0.0365
     20 C          63.1043   81.3047   11.3012 C.ar    1  UNL1        0.1751
     21 C          62.4034   80.6638   12.4622 C.ar    1  UNL1        0.2060
     22 C          61.6867   81.5148   13.4683 C.ar    1  UNL1        0.1751
     23 C          61.6708   83.0066   13.3133 C.ar    1  UNL1        0.0365
     24 O          63.8210   80.4537   10.2951 O.3     1  UNL1       -0.4683
     25 C          63.0635   79.4287    9.5043 C.3     1  UNL1        0.2526
     26 O          62.4193   79.1719   12.6172 O.3     1  UNL1       -0.4654
     27 C          62.7499   78.5594   13.9459 C.3     1  UNL1        0.2528
     28 O          60.9858   80.8738   14.6293 O.3     1  UNL1       -0.4683
     29 C          59.5984   80.3293   14.4602 C.3     1  UNL1        0.2526
     30 O          60.0346   88.1892    9.7471 O.3     1  UNL1       -0.4465
     31 C          60.9302   89.3266    9.3547 C.3     1  UNL1        0.1916
     32 C          61.7624   90.0188   10.3932 C.ar    1  UNL1        0.0203
     33 C          61.3078   90.0463   11.8224 C.ar    1  UNL1       -0.0006
     34 C          62.1399   90.7385   12.8609 C.ar    1  UNL1        0.0029
     35 C          63.4266   91.4031   12.4702 C.ar    1  UNL1        0.0369
     36 C          63.8812   91.3756   11.0410 C.ar    1  UNL1        0.1403
     37 C          63.0491   90.6834   10.0025 C.ar    1  UNL1        0.0361
     38 O          65.1679   92.0402   10.6503 O.3     1  UNL1       -0.4582
     39 C          65.4963   93.4062   11.1760 C.3     1  UNL1        0.2847
     40 N          66.2251   94.3886   10.3079 N.3     1  UNL1       -0.2308
     41 C          66.0047   95.8607   10.4930 C.3     1  UNL1        0.1075
     42 C          66.7335   96.8432    9.6249 C.3     1  UNL1        0.1596
     43 O          67.6827   96.3536    8.5717 O.3     1  UNL1       -0.3508
     44 C          67.9032   94.8814    8.3866 C.3     1  UNL1        0.1596
     45 C          67.1744   93.8989    9.2547 C.3     1  UNL1        0.1075
     46 C          60.9938   89.7719    7.9237 C.3     1  UNL1        0.0530
     47 C          59.7567   89.7500    7.0757 C.3     1  UNL1        0.0305
     48 C          59.4635   92.4058    3.4549 C.ar    1  UNL1        0.1724
     49 C          58.2346   92.0903    4.2551 C.ar    1  UNL1        0.0397
     50 C          58.3324   91.2050    5.4620 C.ar    1  UNL1       -0.0009
     51 C          59.6590   90.6353    5.8688 C.ar    1  UNL1       -0.0188
     52 C          60.8878   90.9508    5.0686 C.ar    1  UNL1        0.0358
     53 C          60.7901   91.8360    3.8616 C.ar    1  UNL1        0.1721
     54 C          59.6534   92.7351    0.8848 C.3     1  UNL1        0.2526
     55 O          59.3657   93.2910    2.2479 O.3     1  UNL1       -0.4684
     56 O          62.0190   92.1515    3.0614 O.3     1  UNL1       -0.4684
     57 C          63.1976   91.2246    3.1001 C.3     1  UNL1        0.2526
@<TRIPOS>BOND
     1    54    55    1
     2    55    48    1
     3    48    49   ar
     4    49    50   ar
     5    50    51   ar
     6    51    47    1
     7    47    46    1
     8    31    46    1
     9    31    30    1
    10    30     1    1
    11     1     2    2
    12     3     1    1
    13     3     4    1
    14     4     5    1
    15     5     6    1
    16     6     7    1
    17     7     8    1
    18     8     9   am
    19     9    10    2
    20     9    11    1
    21    11    18    1
    22    18    19   ar
    23    19    20   ar
    24    20    24    1
    25    24    25    1
    26    20    21   ar
    27    21    26    1
    28    26    27    1
    29    21    22   ar
    30    22    28    1
    31    28    29    1
    32    22    23   ar
    33    11    12    1
    34    12    13    1
    35    13    14    1
    36    14    15    1
    37    15    16    1
    38    16    17    1
    39    31    32    1
    40    32    33   ar
    41    33    34   ar
    42    34    35   ar
    43    35    36   ar
    44    36    38    1
    45    38    39    1
    46    39    40    1
    47    40    41    1
    48    41    42    1
    49    42    43    1
    50    43    44    1
    51    44    45    1
    52    36    37   ar
    53    51    52   ar
    54    52    53   ar
    55    53    56    1
    56    56    57    1
    57    53    48   ar
    58     8     3    1
    59    23    18   ar
    60    17    12    1
    61    37    32   ar
    62    45    40    1
@<TRIPOS>MOLECULE
*****
 57 62 0 0 0
SMALL
GASTEIGER

@<TRIPOS>ATOM
      1 C          60.2310   86.9277    8.6136 C.2     1  UNL1        0.3354
      2 O          59.4069   86.8637    9.8653 O.2     1  UNL1       -0.2483
      3 C          61.3407   85.9425    8.3951 C.3     1  UNL1        0.1746
      4 C          61.6343   85.4378    7.0134 C.3     1  UNL1        0.0314
      5 C          62.7441   84.4525    6.7949 C.3     1  UNL1        0.0040
      6 C          63.5602   83.9720    7.9581 C.3     1  UNL1        0.0216
      7 C          63.2666   84.4766    9.3398 C.3     1  UNL1        0.0939
      8 N          62.1568   85.4619    9.5583 N.am    1  UNL1       -0.2712
      9 C          61.8632   85.9665   10.9400 C.2     1  UNL1        0.2296
     10 O          60.7534   86.9518   11.1585 O.2     1  UNL1       -0.2745
     11 C          62.6793   85.4859   12.1032 C.3     1  UNL1        0.0991
     12 C          63.0678   84.0404   12.2005 C.3     1  UNL1        0.0127
     13 C          64.5155   83.6490   12.1682 C.3     1  UNL1        0.0008
     14 C          64.9040   82.2035   12.2656 C.3     1  UNL1        0.0000
     15 C          63.8447   81.1493   12.3953 C.3     1  UNL1        0.0000
     16 C          62.3971   81.5407   12.4277 C.3     1  UNL1        0.0000
     17 C          62.0086   82.9862   12.3303 C.3     1  UNL1        0.0008
     18 C          63.1069   86.4509   13.1691 C.ar    1  UNL1       -0.0076
     19 C          63.4596   87.8626   12.8049 C.ar    1  UNL1        0.0365
     20 C          63.8872   88.8276   13.8707 C.ar    1  UNL1        0.1751
     21 C          63.9621   88.3808   15.3006 C.ar    1  UNL1        0.2060
     22 C          63.6094   86.9691   15.6648 C.ar    1  UNL1        0.1751
     23 C          63.1818   86.0041   14.5990 C.ar    1  UNL1        0.0365
     24 O          64.2400   90.2393   13.5066 O.3     1  UNL1       -0.4683
     25 C          65.5230   90.8421   13.9969 C.3     1  UNL1        0.2526
     26 O          64.3897   89.3458   16.3665 O.3     1  UNL1       -0.4654
     27 C          63.4552   90.4297   16.8157 C.3     1  UNL1        0.2528
     28 O          63.6843   86.5223   17.0948 O.3     1  UNL1       -0.4683
     29 C          62.5014   86.7020   17.9996 C.3     1  UNL1        0.2526
     30 O          59.9454   87.9770    7.5805 O.3     1  UNL1       -0.4465
     31 C          59.8693   89.4210    7.9792 C.3     1  UNL1        0.1916
     32 C          60.5769   89.8967    9.2133 C.ar    1  UNL1        0.0203
     33 C          59.8379   89.9819   10.5158 C.ar    1  UNL1       -0.0006
     34 C          60.5456   90.4575   11.7500 C.ar    1  UNL1        0.0029
     35 C          61.9923   90.8479   11.6816 C.ar    1  UNL1        0.0369
     36 C          62.7313   90.7627   10.3790 C.ar    1  UNL1        0.1403
     37 C          62.0236   90.2871    9.1449 C.ar    1  UNL1        0.0361
     38 O          64.1780   91.1532   10.3105 O.3     1  UNL1       -0.4582
     39 C          64.6473   92.4123   10.9772 C.3     1  UNL1        0.2847
     40 N          65.8794   93.1093   10.4809 N.3     1  UNL1       -0.2308
     41 C          65.9025   94.6051   10.3722 C.3     1  UNL1        0.1075
     42 C          67.1345   95.3021    9.8759 C.3     1  UNL1        0.1596
     43 O          68.3434   94.5032    9.4883 O.3     1  UNL1       -0.3508
     44 C          68.3204   93.0073    9.5970 C.3     1  UNL1        0.1596
     45 C          67.0883   92.3103   10.0933 C.3     1  UNL1        0.1075
     46 C          59.0855   90.3895    7.1438 C.3     1  UNL1        0.0530
     47 C          58.9551   90.1706    5.6656 C.3     1  UNL1        0.0305
     48 C          60.9936   92.9664    2.7885 C.ar    1  UNL1        0.1724
     49 C          59.5143   93.0699    3.0140 C.ar    1  UNL1        0.0397
     50 C          58.8348   92.1379    3.9731 C.ar    1  UNL1       -0.0009
     51 C          59.6346   91.1025    4.7066 C.ar    1  UNL1       -0.0188
     52 C          61.1139   90.9990    4.4811 C.ar    1  UNL1        0.0358
     53 C          61.7934   91.9309    3.5220 C.ar    1  UNL1        0.1721
     54 C          61.9434   93.4590    0.4210 C.3     1  UNL1        0.2526
     55 O          61.6731   93.8983    1.8295 O.3     1  UNL1       -0.4684
     56 O          63.2728   91.8274    3.2966 O.3     1  UNL1       -0.4684
     57 C          63.9326   90.4810    3.2543 C.3     1  UNL1        0.2526
@<TRIPOS>BOND
     1    54    55    1
     2    55    48    1
     3    48    49   ar
     4    49    50   ar
     5    50    51   ar
     6    51    47    1
     7    47    46    1
     8    31    46    1
     9    31    30    1
    10    30     1    1
    11     1     2    2
    12     3     1    1
    13     3     4    1
    14     4     5    1
    15     5     6    1
    16     6     7    1
    17     7     8    1
    18     8     9   am
    19     9    10    2
    20     9    11    1
    21    11    18    1
    22    18    19   ar
    23    19    20   ar
    24    20    24    1
    25    24    25    1
    26    20    21   ar
    27    21    26    1
    28    26    27    1
    29    21    22   ar
    30    22    28    1
    31    28    29    1
    32    22    23   ar
    33    11    12    1
    34    12    13    1
    35    13    14    1
    36    14    15    1
    37    15    16    1
    38    16    17    1
    39    31    32    1
    40    32    33   ar
    41    33    34   ar
    42    34    35   ar
    43    35    36   ar
    44    36    38    1
    45    38    39    1
    46    39    40    1
    47    40    41    1
    48    41    42    1
    49    42    43    1
    50    43    44    1
    51    44    45    1
    52    36    37   ar
    53    51    52   ar
    54    52    53   ar
    55    53    56    1
    56    56    57    1
    57    53    48   ar
    58     8     3    1
    59    23    18   ar
    60    17    12    1
    61    37    32   ar
    62    45    40    1
@<TRIPOS>MOLECULE
*****
 57 62 0 0 0
SMALL
GASTEIGER

@<TRIPOS>ATOM
      1 C          60.2178   86.9752    8.4834 C.2     1  UNL1        0.3354
      2 O          59.3683   86.8978    9.7172 O.2     1  UNL1       -0.2483
      3 C          61.3031   85.9652    8.2555 C.3     1  UNL1        0.1746
      4 C          61.5732   85.4539    6.8714 C.3     1  UNL1        0.0314
      5 C          62.6586   84.4438    6.6435 C.3     1  UNL1        0.0040
      6 C          63.4737   83.9451    7.7997 C.3     1  UNL1        0.0216
      7 C          63.2036   84.4564    9.1838 C.3     1  UNL1        0.0939
      8 N          62.1183   85.4664    9.4117 N.am    1  UNL1       -0.2712
      9 C          61.8482   85.9777   10.7957 C.2     1  UNL1        0.2296
     10 O          60.7628   86.9877   11.0236 O.2     1  UNL1       -0.2745
     11 C          62.6633   85.4790   11.9519 C.3     1  UNL1        0.0991
     12 C          63.0463   84.0308   12.0302 C.3     1  UNL1        0.0127
     13 C          61.9865   82.9829   12.2005 C.3     1  UNL1        0.0008
     14 C          62.3694   81.5347   12.2789 C.3     1  UNL1        0.0000
     15 C          63.8121   81.1344   12.1870 C.3     1  UNL1        0.0000
     16 C          64.8718   82.1823   12.0167 C.3     1  UNL1        0.0000
     17 C          64.4889   83.6304   11.9384 C.3     1  UNL1        0.0008
     18 C          63.0956   86.4284   13.0298 C.ar    1  UNL1       -0.0076
     19 C          63.1962   85.9555   14.4497 C.ar    1  UNL1        0.0365
     20 C          63.6284   86.9049   15.5276 C.ar    1  UNL1        0.1751
     21 C          63.9601   88.3272   15.1855 C.ar    1  UNL1        0.2060
     22 C          63.8595   88.8001   13.7655 C.ar    1  UNL1        0.1751
     23 C          63.4273   87.8507   12.6877 C.ar    1  UNL1        0.0365
     24 O          63.7290   86.4320   16.9475 O.3     1  UNL1       -0.4683
     25 C          62.5517   86.5648   17.8674 C.3     1  UNL1        0.2526
     26 O          64.3923   89.2766   16.2633 O.3     1  UNL1       -0.4654
     27 C          63.4222   90.2807   16.8117 C.3     1  UNL1        0.2528
     28 O          64.1912   90.2224   13.4234 O.3     1  UNL1       -0.4683
     29 C          65.4491   90.8468   13.9505 C.3     1  UNL1        0.2526
     30 O          59.9820   88.0626    7.4775 O.3     1  UNL1       -0.4465
     31 C          59.8597   89.4879    7.9285 C.3     1  UNL1        0.1916
     32 C          60.5470   89.9391    9.1832 C.ar    1  UNL1        0.0203
     33 C          59.7883   89.9933   10.4760 C.ar    1  UNL1       -0.0006
     34 C          60.4756   90.4445   11.7307 C.ar    1  UNL1        0.0029
     35 C          61.9216   90.8415   11.6925 C.ar    1  UNL1        0.0369
     36 C          62.6803   90.7873   10.3996 C.ar    1  UNL1        0.1403
     37 C          61.9930   90.3362    9.1450 C.ar    1  UNL1        0.0361
     38 O          64.1263   91.1844   10.3613 O.3     1  UNL1       -0.4582
     39 C          64.5537   92.5140   10.9086 C.3     1  UNL1        0.2847
     40 N          65.8274   93.1469   10.4320 N.3     1  UNL1       -0.2308
     41 C          65.9295   94.6396   10.3266 C.3     1  UNL1        0.1075
     42 C          67.2032   95.2725    9.8499 C.3     1  UNL1        0.1596
     43 O          68.3748   94.4126    9.4787 O.3     1  UNL1       -0.3508
     44 C          68.2727   92.9197    9.5841 C.3     1  UNL1        0.1596
     45 C          66.9990   92.2869   10.0607 C.3     1  UNL1        0.1075
     46 C          59.0502   90.4621    7.1250 C.3     1  UNL1        0.0530
     47 C          58.9239   90.2876    5.6406 C.3     1  UNL1        0.0305
     48 C          61.6182   92.5894    2.8671 C.ar    1  UNL1        0.1724
     49 C          62.1886   91.5195    3.7502 C.ar    1  UNL1        0.0397
     50 C          61.2905   90.7522    4.6747 C.ar    1  UNL1       -0.0009
     51 C          59.8220   91.0548    4.7161 C.ar    1  UNL1       -0.0188
     52 C          59.2515   92.1247    3.8330 C.ar    1  UNL1        0.0358
     53 C          60.1496   92.8920    2.9085 C.ar    1  UNL1        0.1721
     54 C          63.9093   92.8692    1.6744 C.3     1  UNL1        0.2526
     55 O          62.5163   93.3566    1.9426 O.3     1  UNL1       -0.4684
     56 O          59.5791   93.9620    2.0254 O.3     1  UNL1       -0.4684
     57 C          59.1719   93.6356    0.6192 C.3     1  UNL1        0.2526
@<TRIPOS>BOND
     1    54    55    1
     2    55    48    1
     3    48    49   ar
     4    49    50   ar
     5    50    51   ar
     6    51    47    1
     7    47    46    1
     8    31    46    1
     9    31    30    1
    10    30     1    1
    11     1     2    2
    12     3     1    1
    13     3     4    1
    14     4     5    1
    15     5     6    1
    16     6     7    1
    17     7     8    1
    18     8     9   am
    19     9    10    2
    20     9    11    1
    21    11    18    1
    22    18    19   ar
    23    19    20   ar
    24    20    24    1
    25    24    25    1
    26    20    21   ar
    27    21    26    1
    28    26    27    1
    29    21    22   ar
    30    22    28    1
    31    28    29    1
    32    22    23   ar
    33    11    12    1
    34    12    13    1
    35    13    14    1
    36    14    15    1
    37    15    16    1
    38    16    17    1
    39    31    32    1
    40    32    33   ar
    41    33    34   ar
    42    34    35   ar
    43    35    36   ar
    44    36    38    1
    45    38    39    1
    46    39    40    1
    47    40    41    1
    48    41    42    1
    49    42    43    1
    50    43    44    1
    51    44    45    1
    52    36    37   ar
    53    51    52   ar
    54    52    53   ar
    55    53    56    1
    56    56    57    1
    57    53    48   ar
    58     8     3    1
    59    23    18   ar
    60    17    12    1
    61    37    32   ar
    62    45    40    1
