@<TRIPOS>MOLECULE
*****
 34 38 0 0 0
SMALL
GASTEIGER

@<TRIPOS>ATOM
      1 C          61.2735   88.9510   11.5623 C.2     1  UNL1        0.2470
      2 O          60.4378   89.4095   12.7205 O.2     1  UNL1       -0.2820
      3 C          61.8362   89.9545   10.5997 C.2     1  UNL1        0.2880
      4 O          61.1923   90.1509    9.2593 O.2     1  UNL1       -0.2664
      5 N          63.0428   90.7614   10.9776 N.am    1  UNL1       -0.2700
      6 C          63.6868   90.5649   12.3181 C.3     1  UNL1        0.1153
      7 C          64.8935   91.3719   12.6960 C.3     1  UNL1        0.1152
      8 N          65.4562   92.3754   11.7334 N.am    1  UNL1       -0.2726
      9 C          66.6628   93.1824   12.1112 C.2     1  UNL1        0.2491
     10 O          67.2255   94.1858   11.1487 O.2     1  UNL1       -0.2699
     11 C          64.8122   92.5718   10.3930 C.3     1  UNL1        0.1152
     12 C          63.6056   91.7648   10.0152 C.3     1  UNL1        0.1153
     13 C          67.3067   92.9859   13.4517 C.ar    1  UNL1        0.0536
     14 C          66.7218   93.6405   14.6679 C.ar    1  UNL1        0.0045
     15 C          67.3658   93.4441   16.0084 C.ar    1  UNL1        0.0001
     16 C          68.5947   92.5929   16.1325 C.ar    1  UNL1        0.0000
     17 C          69.1796   91.9384   14.9163 C.ar    1  UNL1        0.0001
     18 C          68.5357   92.1348   13.5759 C.ar    1  UNL1        0.0045
     19 C          63.3839   86.9839   13.3364 C.2     1  UNL1        0.1448
     20 C          64.2359   85.9163   13.9562 C.2     1  UNL1        0.1335
     21 N          64.1957   84.5173   13.4168 N.2     1  UNL1       -0.2211
     22 C          63.3035   84.1858   12.2573 C.2     1  UNL1        0.1799
     23 C          62.4516   85.2535   11.6374 C.2     1  UNL1        0.1058
     24 N          61.4815   85.2254   10.4937 N.2     1  UNL1       -0.2445
     25 C          60.9221   86.6071   10.3264 C.2     1  UNL1        0.0984
     26 C          61.5465   87.4891   11.3667 C.2     1  UNL1        0.0531
     27 C          62.4918   86.6525   12.1770 C.3     1  UNL1        0.1284
     28 N          63.2634   82.7867   11.7178 N.ar    1  UNL1       -0.1889
     29 C          63.8183   82.3336   10.4000 C.ar    1  UNL1        0.2031
     30 N          63.5591   80.8620   10.2692 N.ar    1  UNL1       -0.2004
     31 C          62.8440   80.4056   11.5063 C.ar    1  UNL1        0.2214
     32 N          62.6613   81.5951   12.4016 N.ar    1  UNL1       -0.1395
     33 C          63.8343   88.6269   15.2979 C.3     1  UNL1        0.2521
     34 O          63.4241   88.3829   13.8759 O.2     1  UNL1       -0.4734
@<TRIPOS>BOND
     1    33    34    1
     2    34    19    1
     3    19    20    2
     4    20    21    1
     5    21    22    2
     6    22    28    1
     7    28    29   ar
     8    29    30   ar
     9    30    31   ar
    10    31    32   ar
    11    22    23    1
    12    23    24    2
    13    24    25    1
    14    25    26    2
    15    26     1    1
    16     1     2    2
    17     1     3    1
    18     3     4    2
    19     3     5   am
    20     5     6    1
    21     6     7    1
    22     7     8    1
    23     8     9   am
    24     9    10    2
    25     9    13    1
    26    13    14   ar
    27    14    15   ar
    28    15    16   ar
    29    16    17   ar
    30    17    18   ar
    31     8    11    1
    32    11    12    1
    33    26    27    1
    34    27    19    1
    35    32    28   ar
    36    27    23    1
    37    12     5    1
    38    18    13   ar
@<TRIPOS>MOLECULE
*****
 34 38 0 0 0
SMALL
GASTEIGER

@<TRIPOS>ATOM
      1 C          62.9094   89.8388   12.7922 C.2     1  UNL1        0.2470
      2 O          62.3687   90.1346   14.1597 O.2     1  UNL1       -0.2820
      3 C          62.6809   88.4930   12.1704 C.2     1  UNL1        0.2880
      4 O          63.2151   87.2591   12.8354 O.2     1  UNL1       -0.2664
      5 N          61.9184   88.3811   10.8836 N.am    1  UNL1       -0.2700
      6 C          61.3842   89.6150   10.2186 C.3     1  UNL1        0.1153
      7 C          60.6216   89.5031    8.9317 C.3     1  UNL1        0.1152
      8 N          60.3932   88.1573    8.3099 N.am    1  UNL1       -0.2726
      9 C          59.6306   88.0454    7.0231 C.2     1  UNL1        0.2491
     10 O          59.4021   86.6996    6.4013 O.2     1  UNL1       -0.2699
     11 C          60.9273   86.9234    8.9749 C.3     1  UNL1        0.1152
     12 C          61.6899   87.0354   10.2617 C.3     1  UNL1        0.1153
     13 C          59.0965   89.2793    6.3581 C.ar    1  UNL1        0.0536
     14 C          57.6187   89.5349    6.3276 C.ar    1  UNL1        0.0045
     15 C          57.0846   90.7688    5.6625 C.ar    1  UNL1        0.0001
     16 C          58.0282   91.7471    5.0281 C.ar    1  UNL1        0.0000
     17 C          59.5059   91.4915    5.0586 C.ar    1  UNL1        0.0001
     18 C          60.0400   90.2576    5.7236 C.ar    1  UNL1        0.0045
     19 C          65.3546   91.8541   13.9882 C.2     1  UNL1        0.1448
     20 C          66.4443   92.8464   14.2671 C.2     1  UNL1        0.1335
     21 N          66.9365   93.7470   13.1732 N.2     1  UNL1       -0.2211
     22 C          66.3390   93.6552   11.8004 C.2     1  UNL1        0.1799
     23 C          65.2493   92.6629   11.5215 C.2     1  UNL1        0.1058
     24 N          64.4750   92.3459   10.2765 N.2     1  UNL1       -0.2445
     25 C          63.5042   91.2494   10.6011 C.2     1  UNL1        0.0984
     26 C          63.6785   90.8887   12.0466 C.2     1  UNL1        0.0531
     27 C          64.7571   91.7623   12.6155 C.3     1  UNL1        0.1284
     28 N          66.8312   94.5559   10.7064 N.ar    1  UNL1       -0.1889
     29 C          67.5262   94.1195    9.4508 C.ar    1  UNL1        0.2031
     30 N          67.8394   95.3449    8.6445 N.ar    1  UNL1       -0.2004
     31 C          67.3380   96.5387    9.4019 C.ar    1  UNL1        0.2214
     32 N          66.7149   96.0510   10.6762 N.ar    1  UNL1       -0.1395
     33 C          64.2788   91.5419   16.3324 C.3     1  UNL1        0.2521
     34 O          64.8624   90.9535   15.0822 O.2     1  UNL1       -0.4734
@<TRIPOS>BOND
     1    33    34    1
     2    34    19    1
     3    19    20    2
     4    20    21    1
     5    21    22    2
     6    22    28    1
     7    28    29   ar
     8    29    30   ar
     9    30    31   ar
    10    31    32   ar
    11    22    23    1
    12    23    24    2
    13    24    25    1
    14    25    26    2
    15    26     1    1
    16     1     2    2
    17     1     3    1
    18     3     4    2
    19     3     5   am
    20     5     6    1
    21     6     7    1
    22     7     8    1
    23     8     9   am
    24     9    10    2
    25     9    13    1
    26    13    14   ar
    27    14    15   ar
    28    15    16   ar
    29    16    17   ar
    30    17    18   ar
    31     8    11    1
    32    11    12    1
    33    26    27    1
    34    27    19    1
    35    32    28   ar
    36    27    23    1
    37    12     5    1
    38    18    13   ar
@<TRIPOS>MOLECULE
*****
 34 38 0 0 0
SMALL
GASTEIGER

@<TRIPOS>ATOM
      1 C          62.6757   89.6548   14.8376 C.2     1  UNL1        0.2470
      2 O          61.1970   89.7099   14.5919 O.2     1  UNL1       -0.2820
      3 C          63.2327   88.6988   15.8503 C.2     1  UNL1        0.2880
      4 O          63.5267   89.1695   17.2439 O.2     1  UNL1       -0.2664
      5 N          63.4957   87.2720   15.4695 N.am    1  UNL1       -0.2700
      6 C          63.2017   86.8012   14.0759 C.3     1  UNL1        0.1153
      7 C          63.4647   85.3744   13.6951 C.3     1  UNL1        0.1152
      8 N          64.0217   84.4183   14.7079 N.am    1  UNL1       -0.2726
      9 C          64.2848   82.9915   14.3272 C.2     1  UNL1        0.2491
     10 O          64.8417   82.0354   15.3399 O.2     1  UNL1       -0.2699
     11 C          64.3157   84.8890   16.1015 C.3     1  UNL1        0.1152
     12 C          64.0527   86.3159   16.4822 C.3     1  UNL1        0.1153
     13 C          63.9908   82.5208   12.9336 C.ar    1  UNL1        0.0536
     14 C          63.0880   81.3430   12.7146 C.ar    1  UNL1        0.0045
     15 C          62.7940   80.8723   11.3210 C.ar    1  UNL1        0.0001
     16 C          63.4029   81.5793   10.1464 C.ar    1  UNL1        0.0000
     17 C          64.3056   82.7569   10.3655 C.ar    1  UNL1        0.0001
     18 C          64.5996   83.2277   11.7590 C.ar    1  UNL1        0.0045
     19 C          62.5597   90.4102   11.5381 C.2     1  UNL1        0.1448
     20 C          62.7251   90.8972   10.1290 C.2     1  UNL1        0.1335
     21 N          63.8416   91.8385    9.7870 N.2     1  UNL1       -0.2211
     22 C          64.7929   92.2930   10.8540 C.2     1  UNL1        0.1799
     23 C          64.6276   91.8061   12.2631 C.2     1  UNL1        0.1058
     24 N          65.4042   92.0791   13.5170 N.2     1  UNL1       -0.2445
     25 C          64.7675   91.3065   14.6340 C.2     1  UNL1        0.0984
     26 C          63.5974   90.5559   14.0705 C.2     1  UNL1        0.0531
     27 C          63.5110   90.8647   12.6051 C.3     1  UNL1        0.1284
     28 N          65.9096   93.2344   10.5119 N.ar    1  UNL1       -0.1889
     29 C          67.3025   92.8433   10.1161 C.ar    1  UNL1        0.2031
     30 N          68.0830   94.0994    9.8651 N.ar    1  UNL1       -0.2004
     31 C          67.1724   95.2668   10.1058 C.ar    1  UNL1        0.2214
     32 N          65.8291   94.7322   10.5056 N.ar    1  UNL1       -0.1395
     33 C          60.0756   89.6863   11.3033 C.3     1  UNL1        0.2521
     34 O          61.4431   89.4688   11.8801 O.2     1  UNL1       -0.4734
@<TRIPOS>BOND
     1    33    34    1
     2    34    19    1
     3    19    20    2
     4    20    21    1
     5    21    22    2
     6    22    28    1
     7    28    29   ar
     8    29    30   ar
     9    30    31   ar
    10    31    32   ar
    11    22    23    1
    12    23    24    2
    13    24    25    1
    14    25    26    2
    15    26     1    1
    16     1     2    2
    17     1     3    1
    18     3     4    2
    19     3     5   am
    20     5     6    1
    21     6     7    1
    22     7     8    1
    23     8     9   am
    24     9    10    2
    25     9    13    1
    26    13    14   ar
    27    14    15   ar
    28    15    16   ar
    29    16    17   ar
    30    17    18   ar
    31     8    11    1
    32    11    12    1
    33    26    27    1
    34    27    19    1
    35    32    28   ar
    36    27    23    1
    37    12     5    1
    38    18    13   ar
@<TRIPOS>MOLECULE
*****
 34 38 0 0 0
SMALL
GASTEIGER

@<TRIPOS>ATOM
      1 C          60.7972   89.9955    9.7808 C.2     1  UNL1        0.2470
      2 O          59.4358   90.5794   10.0172 O.2     1  UNL1       -0.2820
      3 C          60.9595   88.8168    8.8675 C.2     1  UNL1        0.2880
      4 O          60.5994   88.9373    7.4163 O.2     1  UNL1       -0.2664
      5 N          61.4818   87.5177    9.4053 N.am    1  UNL1       -0.2700
      6 C          61.8419   87.3972   10.8565 C.3     1  UNL1        0.1153
      7 C          62.3643   86.0980   11.3942 C.3     1  UNL1        0.1152
      8 N          62.5266   84.9192   10.4809 N.am    1  UNL1       -0.2726
      9 C          63.0490   83.6200   11.0186 C.2     1  UNL1        0.2491
     10 O          63.2113   82.4413   10.1052 O.2     1  UNL1       -0.2699
     11 C          62.1666   85.0397    9.0297 C.3     1  UNL1        0.1152
     12 C          61.6442   86.3389    8.4920 C.3     1  UNL1        0.1153
     13 C          63.4091   83.4996   12.4697 C.ar    1  UNL1        0.0536
     14 C          62.5166   82.7365   13.4031 C.ar    1  UNL1        0.0045
     15 C          62.8767   82.6161   14.8543 C.ar    1  UNL1        0.0001
     16 C          64.1292   83.2587   15.3721 C.ar    1  UNL1        0.0000
     17 C          65.0217   84.0217   14.4388 C.ar    1  UNL1        0.0001
     18 C          64.6616   84.1422   12.9876 C.ar    1  UNL1        0.0045
     19 C          61.6829   89.7220   13.0383 C.2     1  UNL1        0.1448
     20 C          62.2861   89.7544   14.4113 C.2     1  UNL1        0.1335
     21 N          63.5593   90.5094   14.6535 N.2     1  UNL1       -0.2211
     22 C          64.2295   91.2321   13.5227 C.2     1  UNL1        0.1799
     23 C          63.6262   91.1998   12.1497 C.2     1  UNL1        0.1058
     24 N          64.0564   91.8122   10.8498 N.2     1  UNL1       -0.2445
     25 C          63.0490   91.4356    9.8042 C.2     1  UNL1        0.0984
     26 C          61.9962   90.5905   10.4579 C.2     1  UNL1        0.0531
     27 C          62.3529   90.4447   11.9075 C.3     1  UNL1        0.1284
     28 N          65.5028   91.9872   13.7649 N.ar    1  UNL1       -0.1889
     29 C          66.6932   92.0239   12.8530 C.ar    1  UNL1        0.2031
     30 N          67.7353   92.8975   13.4862 N.ar    1  UNL1       -0.2004
     31 C          67.1889   93.4007   14.7893 C.ar    1  UNL1        0.2214
     32 N          65.8091   92.8381   14.9616 N.ar    1  UNL1       -0.1395
     33 C          59.0866   89.6516   12.9719 C.3     1  UNL1        0.2521
     34 O          60.4096   88.9669   12.7962 O.2     1  UNL1       -0.4734
@<TRIPOS>BOND
     1    33    34    1
     2    34    19    1
     3    19    20    2
     4    20    21    1
     5    21    22    2
     6    22    28    1
     7    28    29   ar
     8    29    30   ar
     9    30    31   ar
    10    31    32   ar
    11    22    23    1
    12    23    24    2
    13    24    25    1
    14    25    26    2
    15    26     1    1
    16     1     2    2
    17     1     3    1
    18     3     4    2
    19     3     5   am
    20     5     6    1
    21     6     7    1
    22     7     8    1
    23     8     9   am
    24     9    10    2
    25     9    13    1
    26    13    14   ar
    27    14    15   ar
    28    15    16   ar
    29    16    17   ar
    30    17    18   ar
    31     8    11    1
    32    11    12    1
    33    26    27    1
    34    27    19    1
    35    32    28   ar
    36    27    23    1
    37    12     5    1
    38    18    13   ar
@<TRIPOS>MOLECULE
*****
 34 38 0 0 0
SMALL
GASTEIGER

@<TRIPOS>ATOM
      1 C          62.0106   95.6311   -0.8224 C.2     1  UNL1        0.2470
      2 O          62.8143   96.8559   -0.5002 O.2     1  UNL1       -0.2820
      3 C          61.9066   95.1539   -2.2407 C.2     1  UNL1        0.2880
      4 O          63.1425   94.7503   -2.9888 O.2     1  UNL1       -0.2664
      5 N          60.5667   95.0803   -2.9109 N.am    1  UNL1       -0.2700
      6 C          59.3307   95.4838   -2.1628 C.3     1  UNL1        0.1153
      7 C          57.9908   95.4102   -2.8330 C.3     1  UNL1        0.1152
      8 N          57.8868   94.9330   -4.2513 N.am    1  UNL1       -0.2726
      9 C          56.5469   94.8593   -4.9215 C.2     1  UNL1        0.2491
     10 O          56.4429   94.3822   -6.3398 O.2     1  UNL1       -0.2699
     11 C          59.1227   94.5295   -4.9994 C.3     1  UNL1        0.1152
     12 C          60.4626   94.6031   -4.3291 C.3     1  UNL1        0.1153
     13 C          55.3110   95.2629   -4.1735 C.ar    1  UNL1        0.0536
     14 C          54.2381   96.0496   -4.8664 C.ar    1  UNL1        0.0045
     15 C          53.0022   96.4531   -4.1183 C.ar    1  UNL1        0.0001
     16 C          52.8391   96.0700   -2.6773 C.ar    1  UNL1        0.0000
     17 C          53.9118   95.2833   -1.9844 C.ar    1  UNL1        0.0001
     18 C          55.1478   94.8798   -2.7324 C.ar    1  UNL1        0.0045
     19 C          63.3093   93.2687    1.2278 C.2     1  UNL1        0.1448
     20 C          63.6369   92.2149    2.2438 C.2     1  UNL1        0.1335
     21 N          62.5800   91.7340    3.1932 N.2     1  UNL1       -0.2211
     22 C          61.1952   92.3068    3.1267 C.2     1  UNL1        0.1799
     23 C          60.8675   93.3606    2.1108 C.2     1  UNL1        0.1058
     24 N          59.6006   94.1052    1.8099 N.2     1  UNL1       -0.2445
     25 C          59.8746   95.0463    0.6745 C.2     1  UNL1        0.0984
     26 C          61.3109   94.8834    0.2737 C.2     1  UNL1        0.0531
     27 C          61.9246   93.8416    1.1614 C.3     1  UNL1        0.1284
     28 N          60.1383   91.8258    4.0762 N.ar    1  UNL1       -0.1889
     29 C          60.3326   90.8298    5.1809 C.ar    1  UNL1        0.2031
     30 N          59.0158   90.6448    5.8751 N.ar    1  UNL1       -0.2004
     31 C          58.0077   91.5265    5.1994 C.ar    1  UNL1        0.2214
     32 N          58.7014   92.2564    4.0877 N.ar    1  UNL1       -0.1395
     33 C          65.3312   94.8150    0.7074 C.3     1  UNL1        0.2521
     34 O          64.3663   93.7497    0.2784 O.2     1  UNL1       -0.4734
@<TRIPOS>BOND
     1    33    34    1
     2    34    19    1
     3    19    20    2
     4    20    21    1
     5    21    22    2
     6    22    28    1
     7    28    29   ar
     8    29    30   ar
     9    30    31   ar
    10    31    32   ar
    11    22    23    1
    12    23    24    2
    13    24    25    1
    14    25    26    2
    15    26     1    1
    16     1     2    2
    17     1     3    1
    18     3     4    2
    19     3     5   am
    20     5     6    1
    21     6     7    1
    22     7     8    1
    23     8     9   am
    24     9    10    2
    25     9    13    1
    26    13    14   ar
    27    14    15   ar
    28    15    16   ar
    29    16    17   ar
    30    17    18   ar
    31     8    11    1
    32    11    12    1
    33    26    27    1
    34    27    19    1
    35    32    28   ar
    36    27    23    1
    37    12     5    1
    38    18    13   ar
@<TRIPOS>MOLECULE
*****
 34 38 0 0 0
SMALL
GASTEIGER

@<TRIPOS>ATOM
      1 C          60.8899   89.2405   11.2630 C.2     1  UNL1        0.2470
      2 O          59.5793   89.5849   11.9061 O.2     1  UNL1       -0.2820
      3 C          61.5724   90.2355   10.3717 C.2     1  UNL1        0.2880
      4 O          61.0255   90.5157    9.0034 O.2     1  UNL1       -0.2664
      5 N          62.8018   90.9502   10.8489 N.am    1  UNL1       -0.2700
      6 C          63.3487   90.6701   12.2173 C.3     1  UNL1        0.1153
      7 C          64.5782   91.3848   12.6944 C.3     1  UNL1        0.1152
      8 N          65.2606   92.3798   11.8032 N.am    1  UNL1       -0.2726
      9 C          66.4900   93.0946   12.2803 C.2     1  UNL1        0.2491
     10 O          67.1725   94.0896   11.3890 O.2     1  UNL1       -0.2699
     11 C          64.7137   92.6600   10.4348 C.3     1  UNL1        0.1152
     12 C          63.4843   91.9452    9.9577 C.3     1  UNL1        0.1153
     13 C          67.0370   92.8144   13.6486 C.ar    1  UNL1        0.0536
     14 C          66.2443   93.1918   14.8649 C.ar    1  UNL1        0.0045
     15 C          66.7913   92.9116   16.2333 C.ar    1  UNL1        0.0001
     16 C          68.1309   92.2540   16.3853 C.ar    1  UNL1        0.0000
     17 C          68.9235   91.8766   15.1691 C.ar    1  UNL1        0.0001
     18 C          68.3765   92.1568   13.8008 C.ar    1  UNL1        0.0045
     19 C          61.2867   86.7002    9.0584 C.2     1  UNL1        0.1448
     20 C          61.5775   85.4457    8.2893 C.2     1  UNL1        0.1335
     21 N          62.2561   84.2916    8.9655 N.2     1  UNL1       -0.2211
     22 C          62.6440   84.3920   10.4111 C.2     1  UNL1        0.1799
     23 C          62.3531   85.6465   11.1803 C.2     1  UNL1        0.1058
     24 N          62.6161   86.0337   12.6053 N.2     1  UNL1       -0.2445
     25 C          62.1000   87.4272   12.8097 C.2     1  UNL1        0.0984
     26 C          61.5180   87.9012   11.5110 C.2     1  UNL1        0.0531
     27 C          61.6745   86.8006   10.5039 C.3     1  UNL1        0.1284
     28 N          63.3226   83.2378   11.0874 N.ar    1  UNL1       -0.1889
     29 C          64.7997   82.9783   11.1179 C.ar    1  UNL1        0.2031
     30 N          65.0333   81.7206   11.9013 N.ar    1  UNL1       -0.2004
     31 C          63.7005   81.2028   12.3549 C.ar    1  UNL1        0.2214
     32 N          62.6433   82.1405   11.8519 N.ar    1  UNL1       -0.1395
     33 C          59.3018   87.6464    7.6746 C.3     1  UNL1        0.2521
     34 O          60.6080   87.8543    8.3821 O.2     1  UNL1       -0.4734
@<TRIPOS>BOND
     1    33    34    1
     2    34    19    1
     3    19    20    2
     4    20    21    1
     5    21    22    2
     6    22    28    1
     7    28    29   ar
     8    29    30   ar
     9    30    31   ar
    10    31    32   ar
    11    22    23    1
    12    23    24    2
    13    24    25    1
    14    25    26    2
    15    26     1    1
    16     1     2    2
    17     1     3    1
    18     3     4    2
    19     3     5   am
    20     5     6    1
    21     6     7    1
    22     7     8    1
    23     8     9   am
    24     9    10    2
    25     9    13    1
    26    13    14   ar
    27    14    15   ar
    28    15    16   ar
    29    16    17   ar
    30    17    18   ar
    31     8    11    1
    32    11    12    1
    33    26    27    1
    34    27    19    1
    35    32    28   ar
    36    27    23    1
    37    12     5    1
    38    18    13   ar
