@<TRIPOS>MOLECULE
*****
 32 35 0 0 0
SMALL
GASTEIGER

@<TRIPOS>ATOM
      1 C          62.7472   86.6546   12.0466 C.ar    1  UNL1        0.0949
      2 C          61.7195   86.3215   11.0060 C.ar    1  UNL1        0.1454
      3 F          61.5116   84.8965   10.5863 F       1  UNL1       -0.2040
      4 C          60.8996   87.4134   10.3853 C.ar    1  UNL1        0.0312
      5 C          61.1074   88.8384   10.8050 C.ar    1  UNL1        0.0204
      6 C          62.1352   89.1715   11.8455 C.ar    1  UNL1        0.0924
      7 C          62.9551   88.0796   12.4663 C.ar    1  UNL1        0.1598
      8 F          63.9829   88.4126   13.5069 F       1  UNL1       -0.2026
      9 C          63.5672   85.5626   12.6674 C.2     1  UNL1        0.2006
     10 O          64.3784   85.8412   13.8979 O.2     1  UNL1       -0.2866
     11 C          62.3169   82.7037   13.9840 C.2     1  UNL1        0.0659
     12 C          61.8507   81.3228   14.3388 C.2     1  UNL1        0.0573
     13 C          62.0772   80.1868   13.3858 C.2     1  UNL1        0.2361
     14 N          62.7698   80.4316   12.0780 N.2     1  UNL1       -0.0340
     15 C          63.2359   81.8124   11.7232 C.2     1  UNL1        0.3601
     16 N          63.9422   82.3540   10.5158 N.2     1  UNL1       -0.0342
     17 C          64.1523   83.8248   10.7225 C.2     1  UNL1        0.2354
     18 C          63.5758   84.1921   12.0577 C.2     1  UNL1        0.0799
     19 C          63.0095   82.9484   12.6762 C.3     1  UNL1        0.1729
     20 N          61.8640   84.9757   15.8899 N.1     1  UNL1       -0.1911
     21 C          62.0905   83.8397   14.9369 C.1     1  UNL1        0.0971
     22 N          62.3430   90.5965   12.2652 N.pl3   1  UNL1       -0.2128
     23 H          61.5862   91.2262   12.2614 H       1  UNL1        0.1738
     24 S          63.7040   91.0621   12.6907 S.O2    1  UNL1        0.0751
     25 O          63.2633   91.0401   14.1243 O.2     1  UNL1       -0.1499
     26 O          64.1446   91.0842   11.2571 O.2     1  UNL1       -0.1499
     27 C          65.0649   91.5278   13.1161 C.ar    1  UNL1        0.1442
     28 C          65.6599   91.0314   14.4005 C.ar    1  UNL1        0.0234
     29 C          67.0209   91.4969   14.8260 C.ar    1  UNL1        0.0221
     30 C          67.7869   92.4589   13.9671 C.ar    1  UNL1        0.0990
     31 N          67.1919   92.9553   12.6827 N.ar    1  UNL1       -0.2409
     32 C          65.8309   92.4898   12.2572 C.ar    1  UNL1        0.1190
@<TRIPOS>BOND
     1    20    21    3
     2    21    11    1
     3    11    12    2
     4    12    13    1
     5    13    14    2
     6    14    15    1
     7    15    16    2
     8    16    17    1
     9    17    18    2
    10    18     9    1
    11     9    10    2
    12     9     1    1
    13     1     2   ar
    14     2     3    1
    15     2     4   ar
    16     4     5   ar
    17     5     6   ar
    18     6    22    1
    19    22    24    1
    20    24    25    2
    21    24    26    2
    22    24    27    1
    23    27    28   ar
    24    28    29   ar
    25    29    30   ar
    26    30    31   ar
    27    31    32   ar
    28     6     7   ar
    29     7     8    1
    30    18    19    1
    31    19    11    1
    32    19    15    1
    33     7     1   ar
    34    32    27   ar
    35    22    23    1
@<TRIPOS>MOLECULE
*****
 32 35 0 0 0
SMALL
GASTEIGER

@<TRIPOS>ATOM
      1 C          61.7807   88.4294   11.4659 C.ar    1  UNL1        0.0949
      2 C          60.6395   88.2172   10.5158 C.ar    1  UNL1        0.1454
      3 F          59.6533   89.3203   10.2699 F       1  UNL1       -0.2040
      4 C          60.4847   86.9019    9.8116 C.ar    1  UNL1        0.0312
      5 C          61.4709   85.7988   10.0576 C.ar    1  UNL1        0.0204
      6 C          62.6121   86.0110   11.0077 C.ar    1  UNL1        0.0924
      7 C          62.7669   87.3264   11.7118 C.ar    1  UNL1        0.1598
      8 F          63.9081   87.5387   12.6620 F       1  UNL1       -0.2026
      9 C          61.9356   89.7449   12.1702 C.2     1  UNL1        0.2006
     10 O          61.0340   90.0919   13.3175 O.2     1  UNL1       -0.2866
     11 C          64.5651   90.9029   13.9631 C.2     1  UNL1        0.0659
     12 C          65.7889   91.5557   14.5340 C.2     1  UNL1        0.0573
     13 C          66.5911   92.5073   13.6967 C.2     1  UNL1        0.2361
     14 N          66.1695   92.8059   12.2886 N.2     1  UNL1       -0.0340
     15 C          64.9457   92.1531   11.7177 C.2     1  UNL1        0.3601
     16 N          64.2900   92.2526   10.3722 N.2     1  UNL1       -0.0342
     17 C          63.0826   91.3626   10.3779 C.2     1  UNL1        0.2354
     18 C          62.9921   90.7130   11.7269 C.2     1  UNL1        0.0799
     19 C          64.1435   91.2015   12.5549 C.3     1  UNL1        0.1729
     20 N          62.9607   88.9998   15.6377 N.1     1  UNL1       -0.1911
     21 C          63.7629   89.9513   14.8004 C.1     1  UNL1        0.0971
     22 N          63.5983   84.9079   11.2536 N.pl3   1  UNL1       -0.2128
     23 H          64.5372   85.0165   10.9778 H       1  UNL1        0.1738
     24 S          63.1541   83.6395   11.9197 S.O2    1  UNL1        0.0751
     25 O          63.5146   82.8656   10.6864 O.2     1  UNL1       -0.1499
     26 O          62.7937   84.4134   13.1531 O.2     1  UNL1       -0.1499
     27 C          62.7099   82.3711   12.5859 C.ar    1  UNL1        0.1442
     28 C          62.8988   81.0541   11.8931 C.ar    1  UNL1        0.0234
     29 C          62.4546   79.7857   12.5592 C.ar    1  UNL1        0.0221
     30 C          61.8216   79.8341   13.9182 C.ar    1  UNL1        0.0990
     31 N          61.6327   81.1511   14.6110 N.ar    1  UNL1       -0.2409
     32 C          62.0769   82.4196   13.9449 C.ar    1  UNL1        0.1190
@<TRIPOS>BOND
     1    20    21    3
     2    21    11    1
     3    11    12    2
     4    12    13    1
     5    13    14    2
     6    14    15    1
     7    15    16    2
     8    16    17    1
     9    17    18    2
    10    18     9    1
    11     9    10    2
    12     9     1    1
    13     1     2   ar
    14     2     3    1
    15     2     4   ar
    16     4     5   ar
    17     5     6   ar
    18     6    22    1
    19    22    24    1
    20    24    25    2
    21    24    26    2
    22    24    27    1
    23    27    28   ar
    24    28    29   ar
    25    29    30   ar
    26    30    31   ar
    27    31    32   ar
    28     6     7   ar
    29     7     8    1
    30    18    19    1
    31    19    11    1
    32    19    15    1
    33     7     1   ar
    34    32    27   ar
    35    22    23    1
@<TRIPOS>MOLECULE
*****
 32 35 0 0 0
SMALL
GASTEIGER

@<TRIPOS>ATOM
      1 C          63.4443   88.6590   15.0138 C.ar    1  UNL1        0.0949
      2 C          63.1255   88.5353   16.4743 C.ar    1  UNL1        0.1454
      3 F          62.5740   89.7117   17.2239 F       1  UNL1       -0.2040
      4 C          63.3581   87.2351   17.1852 C.ar    1  UNL1        0.0312
      5 C          63.9097   86.0587   16.4357 C.ar    1  UNL1        0.0204
      6 C          64.2285   86.1824   14.9752 C.ar    1  UNL1        0.0924
      7 C          63.9958   87.4826   14.2643 C.ar    1  UNL1        0.1598
      8 F          64.3146   87.6063   12.8038 F       1  UNL1       -0.2026
      9 C          63.2116   89.9592   14.3029 C.2     1  UNL1        0.2006
     10 O          61.9227   90.1944   13.5726 O.2     1  UNL1       -0.2866
     11 C          64.5248   91.6202   11.6595 C.2     1  UNL1        0.0659
     12 C          65.2557   92.4832   10.6743 C.2     1  UNL1        0.0573
     13 C          66.2852   93.4628   11.1543 C.2     1  UNL1        0.2361
     14 N          66.5838   93.5794   12.6196 N.2     1  UNL1       -0.0340
     15 C          65.8529   92.7163   13.6049 C.2     1  UNL1        0.3601
     16 N          65.9336   92.6091   15.0989 N.2     1  UNL1       -0.0342
     17 C          64.9540   91.5633   15.5422 C.2     1  UNL1        0.2354
     18 C          64.2679   91.0241   14.3222 C.2     1  UNL1        0.0799
     19 C          64.8234   91.7367   13.1249 C.3     1  UNL1        0.1729
     20 N          62.4658   89.6609   10.6995 N.1     1  UNL1       -0.1911
     21 C          63.4953   90.6405   11.1795 C.1     1  UNL1        0.0971
     22 N          64.7800   85.0060   14.2257 N.pl3   1  UNL1       -0.2128
     23 H          65.6928   85.0402   13.8584 H       1  UNL1        0.1738
     24 S          63.9408   83.7773   14.0357 S.O2    1  UNL1        0.0751
     25 O          63.4238   84.3306   12.7409 O.2     1  UNL1       -0.1499
     26 O          64.4577   83.2240   15.3305 O.2     1  UNL1       -0.1499
     27 C          63.1016   82.5487   13.8458 C.ar    1  UNL1        0.1442
     28 C          63.5477   81.4747   12.8983 C.ar    1  UNL1        0.0234
     29 C          62.7085   80.2460   12.7084 C.ar    1  UNL1        0.0221
     30 C          61.4232   80.0912   13.4659 C.ar    1  UNL1        0.0990
     31 N          60.9771   81.1651   14.4135 N.ar    1  UNL1       -0.2409
     32 C          61.8162   82.3938   14.6034 C.ar    1  UNL1        0.1190
@<TRIPOS>BOND
     1    20    21    3
     2    21    11    1
     3    11    12    2
     4    12    13    1
     5    13    14    2
     6    14    15    1
     7    15    16    2
     8    16    17    1
     9    17    18    2
    10    18     9    1
    11     9    10    2
    12     9     1    1
    13     1     2   ar
    14     2     3    1
    15     2     4   ar
    16     4     5   ar
    17     5     6   ar
    18     6    22    1
    19    22    24    1
    20    24    25    2
    21    24    26    2
    22    24    27    1
    23    27    28   ar
    24    28    29   ar
    25    29    30   ar
    26    30    31   ar
    27    31    32   ar
    28     6     7   ar
    29     7     8    1
    30    18    19    1
    31    19    11    1
    32    19    15    1
    33     7     1   ar
    34    32    27   ar
    35    22    23    1
@<TRIPOS>MOLECULE
*****
 32 35 0 0 0
SMALL
GASTEIGER

@<TRIPOS>ATOM
      1 C          63.6301   89.0917   15.2975 C.ar    1  UNL1        0.0949
      2 C          63.1885   88.7380   16.6867 C.ar    1  UNL1        0.1454
      3 F          62.7056   89.8116   17.6164 F       1  UNL1       -0.2040
      4 C          63.2300   87.3108   17.1463 C.ar    1  UNL1        0.0312
      5 C          63.7130   86.2373   16.2166 C.ar    1  UNL1        0.0204
      6 C          64.1545   86.5909   14.8274 C.ar    1  UNL1        0.0924
      7 C          64.1131   88.0182   14.3679 C.ar    1  UNL1        0.1598
      8 F          64.5546   88.3720   12.9786 F       1  UNL1       -0.2026
      9 C          63.5886   90.5191   14.8379 C.2     1  UNL1        0.2006
     10 O          63.6129   91.6317   15.8435 O.2     1  UNL1       -0.2866
     11 C          65.8345   92.2554   12.9910 C.2     1  UNL1        0.0659
     12 C          66.6605   92.9768   11.9676 C.2     1  UNL1        0.0573
     13 C          66.1940   93.0507   10.5439 C.2     1  UNL1        0.2361
     14 N          64.9016   92.4033   10.1436 N.2     1  UNL1       -0.0340
     15 C          64.0756   91.6819   11.1669 C.2     1  UNL1        0.3601
     16 N          62.7681   90.9532   11.0692 N.2     1  UNL1       -0.0342
     17 C          62.4266   90.4289   12.4324 C.2     1  UNL1        0.2354
     18 C          63.5229   90.8336   13.3727 C.2     1  UNL1        0.0799
     19 C          64.5421   91.6080   12.5906 C.3     1  UNL1        0.1729
     20 N          66.7675   92.1076   15.8384 N.1     1  UNL1       -0.1911
     21 C          66.3010   92.1815   14.4147 C.1     1  UNL1        0.0971
     22 N          64.6375   85.5174   13.8978 N.pl3   1  UNL1       -0.2128
     23 H          65.4452   85.6637   13.3542 H       1  UNL1        0.1738
     24 S          63.8898   84.2210   13.7963 S.O2    1  UNL1        0.0751
     25 O          65.0280   83.5120   14.4684 O.2     1  UNL1       -0.1499
     26 O          62.7516   84.9301   13.1241 O.2     1  UNL1       -0.1499
     27 C          63.1420   82.9247   13.6948 C.ar    1  UNL1        0.1442
     28 C          63.5285   81.9154   12.6545 C.ar    1  UNL1        0.0234
     29 C          62.7808   80.6190   12.5529 C.ar    1  UNL1        0.0221
     30 C          61.6466   80.3319   13.4916 C.ar    1  UNL1        0.0990
     31 N          61.2601   81.3412   14.5318 N.ar    1  UNL1       -0.2409
     32 C          62.0079   82.6375   14.6334 C.ar    1  UNL1        0.1190
@<TRIPOS>BOND
     1    20    21    3
     2    21    11    1
     3    11    12    2
     4    12    13    1
     5    13    14    2
     6    14    15    1
     7    15    16    2
     8    16    17    1
     9    17    18    2
    10    18     9    1
    11     9    10    2
    12     9     1    1
    13     1     2   ar
    14     2     3    1
    15     2     4   ar
    16     4     5   ar
    17     5     6   ar
    18     6    22    1
    19    22    24    1
    20    24    25    2
    21    24    26    2
    22    24    27    1
    23    27    28   ar
    24    28    29   ar
    25    29    30   ar
    26    30    31   ar
    27    31    32   ar
    28     6     7   ar
    29     7     8    1
    30    18    19    1
    31    19    11    1
    32    19    15    1
    33     7     1   ar
    34    32    27   ar
    35    22    23    1
@<TRIPOS>MOLECULE
*****
 32 35 0 0 0
SMALL
GASTEIGER

@<TRIPOS>ATOM
      1 C          64.2965   90.9568   14.0102 C.ar    1  UNL1        0.0949
      2 C          64.7088   91.3586   15.3953 C.ar    1  UNL1        0.1454
      3 F          63.8501   90.9920   16.5694 F       1  UNL1       -0.2040
      4 C          65.9796   92.1268   15.6064 C.ar    1  UNL1        0.0312
      5 C          66.8383   92.4934   14.4323 C.ar    1  UNL1        0.0204
      6 C          66.4260   92.0916   13.0472 C.ar    1  UNL1        0.0924
      7 C          65.1552   91.3233   12.8361 C.ar    1  UNL1        0.1598
      8 F          64.7429   90.9215   11.4510 F       1  UNL1       -0.2026
      9 C          63.0256   90.1885   13.7991 C.2     1  UNL1        0.2006
     10 O          62.2104   89.7486   14.9788 O.2     1  UNL1       -0.2866
     11 C          63.0195   87.1595   12.2840 C.2     1  UNL1        0.0659
     12 C          62.9140   85.9511   11.4017 C.2     1  UNL1        0.0573
     13 C          62.3730   86.0842   10.0090 C.2     1  UNL1        0.2361
     14 N          61.9375   87.4257    9.4986 N.2     1  UNL1       -0.0340
     15 C          62.0429   88.6341   10.3809 C.2     1  UNL1        0.3601
     16 N          61.6945   90.0755   10.1548 N.2     1  UNL1       -0.0342
     17 C          62.0202   90.8332   11.4077 C.2     1  UNL1        0.2354
     18 C          62.5699   89.8601   12.4082 C.2     1  UNL1        0.0799
     19 C          62.5840   88.5010   11.7736 C.3     1  UNL1        0.1729
     20 N          64.1015   86.8933   15.0694 N.1     1  UNL1       -0.1911
     21 C          63.5605   87.0264   13.6767 C.1     1  UNL1        0.0971
     22 N          67.2847   92.4581   11.8731 N.pl3   1  UNL1       -0.2128
     23 H          68.1290   91.9781   11.7118 H       1  UNL1        0.1738
     24 S          66.8569   93.5560   10.9448 S.O2    1  UNL1        0.0751
     25 O          66.3939   94.3677   12.1181 O.2     1  UNL1       -0.1499
     26 O          67.3199   92.7442    9.7715 O.2     1  UNL1       -0.1499
     27 C          66.4292   94.6537   10.0165 C.ar    1  UNL1        0.1442
     28 C          65.4881   95.7183   10.4971 C.ar    1  UNL1        0.0234
     29 C          65.0603   96.8161    9.5688 C.ar    1  UNL1        0.0221
     30 C          65.5736   96.8494    8.1598 C.ar    1  UNL1        0.0990
     31 N          66.5148   95.7848    7.6791 N.ar    1  UNL1       -0.2409
     32 C          66.9426   94.6870    8.6074 C.ar    1  UNL1        0.1190
@<TRIPOS>BOND
     1    20    21    3
     2    21    11    1
     3    11    12    2
     4    12    13    1
     5    13    14    2
     6    14    15    1
     7    15    16    2
     8    16    17    1
     9    17    18    2
    10    18     9    1
    11     9    10    2
    12     9     1    1
    13     1     2   ar
    14     2     3    1
    15     2     4   ar
    16     4     5   ar
    17     5     6   ar
    18     6    22    1
    19    22    24    1
    20    24    25    2
    21    24    26    2
    22    24    27    1
    23    27    28   ar
    24    28    29   ar
    25    29    30   ar
    26    30    31   ar
    27    31    32   ar
    28     6     7   ar
    29     7     8    1
    30    18    19    1
    31    19    11    1
    32    19    15    1
    33     7     1   ar
    34    32    27   ar
    35    22    23    1
@<TRIPOS>MOLECULE
*****
 32 35 0 0 0
SMALL
GASTEIGER

@<TRIPOS>ATOM
      1 C          63.4580   88.9329   15.2101 C.ar    1  UNL1        0.0949
      2 C          63.0414   89.2661   16.6120 C.ar    1  UNL1        0.1454
      3 F          62.6611   90.6730   16.9671 F       1  UNL1       -0.2040
      4 C          63.0050   88.1924   17.6588 C.ar    1  UNL1        0.0312
      5 C          63.3853   86.7855   17.3037 C.ar    1  UNL1        0.0204
      6 C          63.8020   86.4523   15.9018 C.ar    1  UNL1        0.0924
      7 C          63.8383   87.5260   14.8550 C.ar    1  UNL1        0.1598
      8 F          64.2550   87.1929   13.4531 F       1  UNL1       -0.2026
      9 C          63.4944   90.0066   14.1632 C.2     1  UNL1        0.2006
     10 O          62.4531   90.0373   13.0840 O.2     1  UNL1       -0.2866
     11 C          64.6825   91.8362   11.5726 C.2     1  UNL1        0.0659
     12 C          65.3714   92.7575   10.6100 C.2     1  UNL1        0.0573
     13 C          66.4480   93.6818   11.0964 C.2     1  UNL1        0.2361
     14 N          66.8357   93.6848   12.5454 N.2     1  UNL1       -0.0340
     15 C          66.1468   92.7636   13.5080 C.2     1  UNL1        0.3601
     16 N          66.3140   92.5450   14.9825 N.2     1  UNL1       -0.0342
     17 C          65.3408   91.4856   15.4075 C.2     1  UNL1        0.2354
     18 C          64.5721   91.0495   14.1955 C.2     1  UNL1        0.0799
     19 C          65.0702   91.8393   13.0216 C.3     1  UNL1        0.1729
     20 N          62.5292   89.9877   10.5998 N.1     1  UNL1       -0.1911
     21 C          63.6058   90.9120   11.0862 C.1     1  UNL1        0.0971
     22 N          64.1823   85.0455   15.5468 N.pl3   1  UNL1       -0.2128
     23 H          64.5078   84.4324   16.2449 H       1  UNL1        0.1738
     24 S          64.0667   84.5727   14.1279 S.O2    1  UNL1        0.0751
     25 O          62.5734   84.6866   14.2116 O.2     1  UNL1       -0.1499
     26 O          65.5600   84.4587   14.0442 O.2     1  UNL1       -0.1499
     27 C          63.9512   84.0999   12.7091 C.ar    1  UNL1        0.1442
     28 C          63.0426   84.8135   11.7524 C.ar    1  UNL1        0.0234
     29 C          62.9270   84.3407   10.3335 C.ar    1  UNL1        0.0221
     30 C          63.7200   83.1544    9.8713 C.ar    1  UNL1        0.0990
     31 N          64.6286   82.4407   10.8281 N.ar    1  UNL1       -0.2409
     32 C          64.7442   82.9135   12.2469 C.ar    1  UNL1        0.1190
@<TRIPOS>BOND
     1    20    21    3
     2    21    11    1
     3    11    12    2
     4    12    13    1
     5    13    14    2
     6    14    15    1
     7    15    16    2
     8    16    17    1
     9    17    18    2
    10    18     9    1
    11     9    10    2
    12     9     1    1
    13     1     2   ar
    14     2     3    1
    15     2     4   ar
    16     4     5   ar
    17     5     6   ar
    18     6    22    1
    19    22    24    1
    20    24    25    2
    21    24    26    2
    22    24    27    1
    23    27    28   ar
    24    28    29   ar
    25    29    30   ar
    26    30    31   ar
    27    31    32   ar
    28     6     7   ar
    29     7     8    1
    30    18    19    1
    31    19    11    1
    32    19    15    1
    33     7     1   ar
    34    32    27   ar
    35    22    23    1
@<TRIPOS>MOLECULE
*****
 32 35 0 0 0
SMALL
GASTEIGER

@<TRIPOS>ATOM
      1 C          63.0676   86.3786   12.4053 C.ar    1  UNL1        0.0949
      2 C          62.2795   86.0802   11.1644 C.ar    1  UNL1        0.1454
      3 F          62.2091   84.6766   10.6401 F       1  UNL1       -0.2040
      4 C          61.5618   87.1853   10.4479 C.ar    1  UNL1        0.0312
      5 C          61.6322   88.5889   10.9722 C.ar    1  UNL1        0.0204
      6 C          62.4203   88.8874   12.2131 C.ar    1  UNL1        0.0924
      7 C          63.1380   87.7822   12.9296 C.ar    1  UNL1        0.1598
      8 F          63.9262   88.0806   14.1705 F       1  UNL1       -0.2026
      9 C          63.7854   85.2734   13.1218 C.2     1  UNL1        0.2006
     10 O          65.2806   85.1792   13.0488 O.2     1  UNL1       -0.2866
     11 C          63.2515   82.0171   12.3590 C.2     1  UNL1        0.0659
     12 C          62.8755   80.5690   12.2522 C.2     1  UNL1        0.0573
     13 C          62.0429   79.9293   13.3234 C.2     1  UNL1        0.2361
     14 N          61.5862   80.7378   14.5014 N.2     1  UNL1       -0.0340
     15 C          61.9622   82.1860   14.6082 C.2     1  UNL1        0.3601
     16 N          61.6607   83.2275   15.6447 N.2     1  UNL1       -0.0342
     17 C          62.3069   84.5108   15.2141 C.2     1  UNL1        0.2354
     18 C          63.0079   84.2624   13.9114 C.2     1  UNL1        0.0799
     19 C          62.7949   82.8256   13.5370 C.3     1  UNL1        0.1729
     20 N          64.9169   83.2964   10.2165 N.1     1  UNL1       -0.1911
     21 C          64.0842   82.6568   11.2877 C.1     1  UNL1        0.0971
     22 N          62.4907   90.2910   12.7374 N.pl3   1  UNL1       -0.2128
     23 H          61.6653   90.8149   12.8541 H       1  UNL1        0.1738
     24 S          63.8186   90.8964   13.0840 S.O2    1  UNL1        0.0751
     25 O          63.4195   90.9446   14.5291 O.2     1  UNL1       -0.1499
     26 O          64.2177   90.8483   11.6389 O.2     1  UNL1       -0.1499
     27 C          65.1465   91.5019   13.4304 C.ar    1  UNL1        0.1442
     28 C          65.9153   90.9959   14.6149 C.ar    1  UNL1        0.0234
     29 C          67.2433   91.6013   14.9615 C.ar    1  UNL1        0.0221
     30 C          67.8025   92.7126   14.1235 C.ar    1  UNL1        0.0990
     31 N          67.0336   93.2186   12.9390 N.ar    1  UNL1       -0.2409
     32 C          65.7057   92.6132   12.5925 C.ar    1  UNL1        0.1190
@<TRIPOS>BOND
     1    20    21    3
     2    21    11    1
     3    11    12    2
     4    12    13    1
     5    13    14    2
     6    14    15    1
     7    15    16    2
     8    16    17    1
     9    17    18    2
    10    18     9    1
    11     9    10    2
    12     9     1    1
    13     1     2   ar
    14     2     3    1
    15     2     4   ar
    16     4     5   ar
    17     5     6   ar
    18     6    22    1
    19    22    24    1
    20    24    25    2
    21    24    26    2
    22    24    27    1
    23    27    28   ar
    24    28    29   ar
    25    29    30   ar
    26    30    31   ar
    27    31    32   ar
    28     6     7   ar
    29     7     8    1
    30    18    19    1
    31    19    11    1
    32    19    15    1
    33     7     1   ar
    34    32    27   ar
    35    22    23    1
@<TRIPOS>MOLECULE
*****
 32 35 0 0 0
SMALL
GASTEIGER

@<TRIPOS>ATOM
      1 C          64.0707   89.9480   14.3166 C.ar    1  UNL1        0.0949
      2 C          63.4870   90.0160   15.6967 C.ar    1  UNL1        0.1454
      3 F          62.4772   88.9970   16.1350 F       1  UNL1       -0.2040
      4 C          63.9130   91.1029   16.6384 C.ar    1  UNL1        0.0312
      5 C          64.9228   92.1219   16.2001 C.ar    1  UNL1        0.0204
      6 C          65.5065   92.0539   14.8200 C.ar    1  UNL1        0.0924
      7 C          65.0804   90.9670   13.8783 C.ar    1  UNL1        0.1598
      8 F          65.6641   90.8989   12.4982 F       1  UNL1       -0.2026
      9 C          63.6446   88.8610   13.3748 C.2     1  UNL1        0.2006
     10 O          63.9834   87.4314   13.6770 O.2     1  UNL1       -0.2866
     11 C          62.1043   86.7308   11.2393 C.2     1  UNL1        0.0659
     12 C          61.3544   86.0109   10.1580 C.2     1  UNL1        0.0573
     13 C          60.7109   86.7868    9.0473 C.2     1  UNL1        0.2361
     14 N          60.8172   88.2827    9.0179 N.2     1  UNL1       -0.0340
     15 C          61.5672   89.0027   10.0992 C.2     1  UNL1        0.3601
     16 N          61.8385   90.4592   10.3336 N.2     1  UNL1       -0.0342
     17 C          62.6497   90.5834   11.5891 C.2     1  UNL1        0.2354
     18 C          62.8798   89.2036   12.1307 C.2     1  UNL1        0.0799
     19 C          62.2107   88.2267   11.2099 C.3     1  UNL1        0.1729
     20 N          63.3914   85.1788   13.4607 N.1     1  UNL1       -0.1911
     21 C          62.7479   85.9548   12.3500 C.1     1  UNL1        0.0971
     22 N          66.5162   93.0729   14.3817 N.pl3   1  UNL1       -0.2128
     23 H          66.9610   93.6439   15.0491 H       1  UNL1        0.1738
     24 S          66.8483   93.2220   12.9266 S.O2    1  UNL1        0.0751
     25 O          68.0627   92.3621   13.1156 O.2     1  UNL1       -0.1499
     26 O          65.6338   94.0818   12.7375 O.2     1  UNL1       -0.1499
     27 C          67.1802   93.3711   11.4714 C.ar    1  UNL1        0.1442
     28 C          68.0131   92.3314   10.7818 C.ar    1  UNL1        0.0234
     29 C          68.3451   92.4804    9.3266 C.ar    1  UNL1        0.0221
     30 C          67.8443   93.6691    8.5610 C.ar    1  UNL1        0.0990
     31 N          67.0114   94.7088    9.2506 N.ar    1  UNL1       -0.2409
     32 C          66.6794   94.5597   10.7058 C.ar    1  UNL1        0.1190
@<TRIPOS>BOND
     1    20    21    3
     2    21    11    1
     3    11    12    2
     4    12    13    1
     5    13    14    2
     6    14    15    1
     7    15    16    2
     8    16    17    1
     9    17    18    2
    10    18     9    1
    11     9    10    2
    12     9     1    1
    13     1     2   ar
    14     2     3    1
    15     2     4   ar
    16     4     5   ar
    17     5     6   ar
    18     6    22    1
    19    22    24    1
    20    24    25    2
    21    24    26    2
    22    24    27    1
    23    27    28   ar
    24    28    29   ar
    25    29    30   ar
    26    30    31   ar
    27    31    32   ar
    28     6     7   ar
    29     7     8    1
    30    18    19    1
    31    19    11    1
    32    19    15    1
    33     7     1   ar
    34    32    27   ar
    35    22    23    1
@<TRIPOS>MOLECULE
*****
 32 35 0 0 0
SMALL
GASTEIGER

@<TRIPOS>ATOM
      1 C          62.0530   88.2472   11.0967 C.ar    1  UNL1        0.0949
      2 C          61.2505   88.9519   10.0434 C.ar    1  UNL1        0.1454
      3 F          60.2114   88.2010    9.2647 F       1  UNL1       -0.2040
      4 C          61.4872   90.4074    9.7688 C.ar    1  UNL1        0.0312
      5 C          62.5263   91.1582   10.5475 C.ar    1  UNL1        0.0204
      6 C          63.3288   90.4536   11.6009 C.ar    1  UNL1        0.0924
      7 C          63.0921   88.9981   11.8754 C.ar    1  UNL1        0.1598
      8 F          63.8946   88.2933   12.9287 F       1  UNL1       -0.2026
      9 C          61.8163   86.7916   11.3714 C.2     1  UNL1        0.2006
     10 O          60.9358   86.3773   12.5128 O.2     1  UNL1       -0.2866
     11 C          63.5137   84.0338   12.3631 C.2     1  UNL1        0.0659
     12 C          64.2950   82.7654   12.5380 C.2     1  UNL1        0.0573
     13 C          64.7676   82.0037   11.3354 C.2     1  UNL1        0.2361
     14 N          64.4588   82.5103    9.9577 N.2     1  UNL1       -0.0340
     15 C          63.6775   83.7787    9.7828 C.2     1  UNL1        0.3601
     16 N          63.2249   84.5180    8.5586 N.2     1  UNL1       -0.0342
     17 C          62.4726   85.7366    9.0046 C.2     1  UNL1        0.2354
     18 C          62.4603   85.7505   10.5045 C.2     1  UNL1        0.0799
     19 C          63.2049   84.5404   10.9854 C.3     1  UNL1        0.1729
     20 N          62.5686   85.5573   14.7684 N.1     1  UNL1       -0.1911
     21 C          63.0411   84.7955   13.5658 C.1     1  UNL1        0.0971
     22 N          64.3680   91.2045   12.3796 N.pl3   1  UNL1       -0.2128
     23 H          64.5121   91.0007   13.3319 H       1  UNL1        0.1738
     24 S          65.1875   92.2657   11.7072 S.O2    1  UNL1        0.0751
     25 O          65.3773   92.9547   13.0261 O.2     1  UNL1       -0.1499
     26 O          64.9977   91.5768   10.3884 O.2     1  UNL1       -0.1499
     27 C          66.0070   93.3269   11.0348 C.ar    1  UNL1        0.1442
     28 C          66.9834   92.9518    9.9596 C.ar    1  UNL1        0.0234
     29 C          67.8029   94.0130    9.2871 C.ar    1  UNL1        0.0221
     30 C          67.6462   95.4493    9.6899 C.ar    1  UNL1        0.0990
     31 N          66.6698   95.8245   10.7651 N.ar    1  UNL1       -0.2409
     32 C          65.8503   94.7633   11.4375 C.ar    1  UNL1        0.1190
@<TRIPOS>BOND
     1    20    21    3
     2    21    11    1
     3    11    12    2
     4    12    13    1
     5    13    14    2
     6    14    15    1
     7    15    16    2
     8    16    17    1
     9    17    18    2
    10    18     9    1
    11     9    10    2
    12     9     1    1
    13     1     2   ar
    14     2     3    1
    15     2     4   ar
    16     4     5   ar
    17     5     6   ar
    18     6    22    1
    19    22    24    1
    20    24    25    2
    21    24    26    2
    22    24    27    1
    23    27    28   ar
    24    28    29   ar
    25    29    30   ar
    26    30    31   ar
    27    31    32   ar
    28     6     7   ar
    29     7     8    1
    30    18    19    1
    31    19    11    1
    32    19    15    1
    33     7     1   ar
    34    32    27   ar
    35    22    23    1
