@<TRIPOS>MOLECULE
*****
 22 24 0 0 0
SMALL
GASTEIGER

@<TRIPOS>ATOM
      1 C          64.7628   91.7072   12.2911 C.2     1  UNL1       -0.0420
      2 C          63.7893   90.9356   13.1319 C.2     1  UNL1       -0.0240
      3 C          62.7027   90.4252   12.2326 C.ar    1  UNL1       -0.0078
      4 C          61.4774   89.6041   12.5050 C.ar    1  UNL1       -0.0006
      5 C          60.5540   89.2391   11.3806 C.ar    1  UNL1       -0.0000
      6 C          60.8560   89.6952    9.9839 C.ar    1  UNL1       -0.0003
      7 C          62.0814   90.5163    9.7116 C.ar    1  UNL1       -0.0040
      8 C          63.0047   90.8814   10.8359 C.ar    1  UNL1       -0.0184
      9 C          64.2779   91.6736   10.8721 C.3     1  UNL1        0.0480
     10 C          66.0034   92.3920   12.7830 C.3     1  UNL1        0.0394
     11 C          67.1497   92.6316   11.8456 C.3     1  UNL1        0.0765
     12 N          67.0875   93.7583   10.8574 N.3     1  UNL1       -0.2712
     13 C          66.3131   95.0007   11.1842 C.3     1  UNL1        0.0896
     14 C          68.4794   92.3589    9.1678 C.3     1  UNL1        0.0188
     15 C          67.7998   93.6426    9.5424 C.3     1  UNL1        0.0722
     16 C          63.8854   90.7135   14.6123 C.3     1  UNL1        0.0730
     17 C          63.7702   89.3263   15.1716 C.ar    1  UNL1        0.0825
     18 C          63.0748   89.1012   16.4814 C.ar    1  UNL1        0.1139
     19 N          62.9595   87.7142   17.0408 N.ar    1  UNL1       -0.2394
     20 C          63.5396   86.5523   16.2901 C.ar    1  UNL1        0.1195
     21 C          64.2350   86.7774   14.9803 C.ar    1  UNL1        0.1191
     22 N          64.3503   88.1644   14.4210 N.ar    1  UNL1       -0.2446
@<TRIPOS>BOND
     1    14    15    1
     2    15    12    1
     3    12    13    1
     4    12    11    1
     5    11    10    1
     6    10     1    1
     7     1     2    2
     8     2    16    1
     9    16    17    1
    10    17    18   ar
    11    18    19   ar
    12    19    20   ar
    13    20    21   ar
    14    21    22   ar
    15     2     3    1
    16     3     4   ar
    17     4     5   ar
    18     5     6   ar
    19     6     7   ar
    20     7     8   ar
    21     8     9    1
    22     9     1    1
    23    22    17   ar
    24     8     3   ar
@<TRIPOS>MOLECULE
*****
 22 24 0 0 0
SMALL
GASTEIGER

@<TRIPOS>ATOM
      1 C          63.9724   89.7316   13.5811 C.2     1  UNL1       -0.0420
      2 C          63.9142   88.2337   13.6353 C.2     1  UNL1       -0.0240
      3 C          63.1781   87.7540   12.4195 C.ar    1  UNL1       -0.0078
      4 C          62.8179   86.3785   11.9420 C.ar    1  UNL1       -0.0006
      5 C          62.0609   86.2044   10.6588 C.ar    1  UNL1       -0.0000
      6 C          61.6643   87.4059    9.8531 C.ar    1  UNL1       -0.0003
      7 C          62.0245   88.7814   10.3306 C.ar    1  UNL1       -0.0040
      8 C          62.7815   88.9555   11.6138 C.ar    1  UNL1       -0.0184
      9 C          63.2723   90.1777   12.3317 C.3     1  UNL1        0.0480
     10 C          64.6174   90.6263   14.5977 C.3     1  UNL1        0.0394
     11 C          66.0094   91.1372   14.3714 C.3     1  UNL1        0.0765
     12 N          66.2223   92.5210   13.8333 N.3     1  UNL1       -0.2712
     13 C          65.8037   92.8533   12.4317 C.3     1  UNL1        0.0896
     14 C          67.7737   93.1741   15.8124 C.3     1  UNL1        0.0188
     15 C          66.8535   93.5726   14.6968 C.3     1  UNL1        0.0722
     16 C          64.4908   87.3675   14.7157 C.3     1  UNL1        0.0730
     17 C          64.0889   85.9257   14.8156 C.ar    1  UNL1        0.0825
     18 C          64.9557   84.8618   14.2101 C.ar    1  UNL1        0.1139
     19 N          64.5539   83.4201   14.3099 N.ar    1  UNL1       -0.2394
     20 C          63.2852   83.0423   15.0152 C.ar    1  UNL1        0.1195
     21 C          62.4183   84.1062   15.6207 C.ar    1  UNL1        0.1191
     22 N          62.8201   85.5479   15.5209 N.ar    1  UNL1       -0.2446
@<TRIPOS>BOND
     1    14    15    1
     2    15    12    1
     3    12    13    1
     4    12    11    1
     5    11    10    1
     6    10     1    1
     7     1     2    2
     8     2    16    1
     9    16    17    1
    10    17    18   ar
    11    18    19   ar
    12    19    20   ar
    13    20    21   ar
    14    21    22   ar
    15     2     3    1
    16     3     4   ar
    17     4     5   ar
    18     5     6   ar
    19     6     7   ar
    20     7     8   ar
    21     8     9    1
    22     9     1    1
    23    22    17   ar
    24     8     3   ar
@<TRIPOS>MOLECULE
*****
 22 24 0 0 0
SMALL
GASTEIGER

@<TRIPOS>ATOM
      1 C          62.2914   88.7676   10.9672 C.2     1  UNL1       -0.0420
      2 C          62.9637   89.3054   12.1954 C.2     1  UNL1       -0.0240
      3 C          63.4413   88.1401   13.0104 C.ar    1  UNL1       -0.0078
      4 C          64.1709   88.0621   14.3186 C.ar    1  UNL1       -0.0006
      5 C          64.5233   86.7260   14.9022 C.ar    1  UNL1       -0.0000
      6 C          64.1460   85.4680   14.1776 C.ar    1  UNL1       -0.0003
      7 C          63.4165   85.5460   12.8693 C.ar    1  UNL1       -0.0040
      8 C          63.0641   86.8821   12.2857 C.ar    1  UNL1       -0.0184
      9 C          62.3534   87.2699   11.0230 C.3     1  UNL1        0.0480
     10 C          61.6667   89.5841    9.8749 C.3     1  UNL1        0.0394
     11 C          60.2039   89.4416    9.5750 C.3     1  UNL1        0.0765
     12 N          59.7527   88.5764    8.4357 N.3     1  UNL1       -0.2712
     13 C          59.4855   89.1858    7.0913 C.3     1  UNL1        0.0896
     14 C          60.3632   86.1263    7.8243 C.3     1  UNL1        0.0188
     15 C          59.5687   87.1020    8.6408 C.3     1  UNL1        0.0722
     16 C          63.1295   90.7542   12.5471 C.3     1  UNL1        0.0730
     17 C          64.4079   91.4651   12.2149 C.ar    1  UNL1        0.0825
     18 C          65.4712   91.6243   13.2609 C.ar    1  UNL1        0.1139
     19 N          66.7496   92.3352   12.9287 N.ar    1  UNL1       -0.2394
     20 C          66.9646   92.8869   11.5506 C.ar    1  UNL1        0.1195
     21 C          65.9013   92.7277   10.5046 C.ar    1  UNL1        0.1191
     22 N          64.6230   92.0168   10.8367 N.ar    1  UNL1       -0.2446
@<TRIPOS>BOND
     1    14    15    1
     2    15    12    1
     3    12    13    1
     4    12    11    1
     5    11    10    1
     6    10     1    1
     7     1     2    2
     8     2    16    1
     9    16    17    1
    10    17    18   ar
    11    18    19   ar
    12    19    20   ar
    13    20    21   ar
    14    21    22   ar
    15     2     3    1
    16     3     4   ar
    17     4     5   ar
    18     5     6   ar
    19     6     7   ar
    20     7     8   ar
    21     8     9    1
    22     9     1    1
    23    22    17   ar
    24     8     3   ar
@<TRIPOS>MOLECULE
*****
 22 24 0 0 0
SMALL
GASTEIGER

@<TRIPOS>ATOM
      1 C          63.4515   88.2031   12.9002 C.2     1  UNL1       -0.0420
      2 C          62.8306   89.4018   12.2462 C.2     1  UNL1       -0.0240
      3 C          62.0383   88.9268   11.0644 C.ar    1  UNL1       -0.0078
      4 C          61.2143   89.6603   10.0481 C.ar    1  UNL1       -0.0006
      5 C          60.5216   88.9015    8.9553 C.ar    1  UNL1       -0.0000
      6 C          60.6528   87.4092    8.8788 C.ar    1  UNL1       -0.0003
      7 C          61.4768   86.6757    9.8951 C.ar    1  UNL1       -0.0040
      8 C          62.1695   87.4345   10.9880 C.ar    1  UNL1       -0.0184
      9 C          63.0429   86.9872   12.1225 C.3     1  UNL1        0.0480
     10 C          64.3272   88.2177   14.1179 C.3     1  UNL1        0.0394
     11 C          64.6008   86.9433   14.8602 C.3     1  UNL1        0.0765
     12 N          63.5548   86.3631   15.7653 N.3     1  UNL1       -0.2712
     13 C          63.0912   84.9504   15.5668 C.3     1  UNL1        0.0896
     14 C          62.7314   86.5883   18.2191 C.3     1  UNL1        0.0188
     15 C          62.9725   87.1955   16.8689 C.3     1  UNL1        0.0722
     16 C          62.9763   90.8255   12.6953 C.3     1  UNL1        0.0730
     17 C          64.1961   91.6111   12.3140 C.ar    1  UNL1        0.0825
     18 C          64.4931   91.8806   10.8686 C.ar    1  UNL1        0.1139
     19 N          65.7127   92.6661   10.4873 N.ar    1  UNL1       -0.2394
     20 C          66.6354   93.1820   11.5514 C.ar    1  UNL1        0.1195
     21 C          66.3385   92.9125   12.9968 C.ar    1  UNL1        0.1191
     22 N          65.1188   92.1270   13.3781 N.ar    1  UNL1       -0.2446
@<TRIPOS>BOND
     1    14    15    1
     2    15    12    1
     3    12    13    1
     4    12    11    1
     5    11    10    1
     6    10     1    1
     7     1     2    2
     8     2    16    1
     9    16    17    1
    10    17    18   ar
    11    18    19   ar
    12    19    20   ar
    13    20    21   ar
    14    21    22   ar
    15     2     3    1
    16     3     4   ar
    17     4     5   ar
    18     5     6   ar
    19     6     7   ar
    20     7     8   ar
    21     8     9    1
    22     9     1    1
    23    22    17   ar
    24     8     3   ar
@<TRIPOS>MOLECULE
*****
 22 24 0 0 0
SMALL
GASTEIGER

@<TRIPOS>ATOM
      1 C          64.2173   89.7975   14.1340 C.2     1  UNL1       -0.0420
      2 C          63.5706   90.2037   12.8429 C.2     1  UNL1       -0.0240
      3 C          64.4149   91.2748   12.2184 C.ar    1  UNL1       -0.0078
      4 C          64.2706   92.0502   10.9425 C.ar    1  UNL1       -0.0006
      5 C          65.2948   93.0814   10.5718 C.ar    1  UNL1       -0.0000
      6 C          66.4633   93.3373   11.4769 C.ar    1  UNL1       -0.0003
      7 C          66.6075   92.5619   12.7528 C.ar    1  UNL1       -0.0040
      8 C          65.5833   91.5306   13.1235 C.ar    1  UNL1       -0.0184
      9 C          65.4612   90.6176   14.3074 C.3     1  UNL1        0.0480
     10 C          63.7092   88.7544   15.0847 C.3     1  UNL1        0.0394
     11 C          64.3629   87.4055   15.1373 C.3     1  UNL1        0.0765
     12 N          63.6396   86.2450   15.7539 N.3     1  UNL1       -0.2712
     13 C          63.0258   86.3818   17.1158 C.3     1  UNL1        0.0896
     14 C          64.7140   84.4102   14.2609 C.3     1  UNL1        0.0188
     15 C          63.5301   84.9479   15.0087 C.3     1  UNL1        0.0722
     16 C          62.3023   89.6381   12.2758 C.3     1  UNL1        0.0730
     17 C          62.3398   88.3739   11.4692 C.ar    1  UNL1        0.0825
     18 C          62.1073   88.4221    9.9881 C.ar    1  UNL1        0.1139
     19 N          62.1447   87.1581    9.1814 N.ar    1  UNL1       -0.2394
     20 C          62.4145   85.8457    9.8560 C.ar    1  UNL1        0.1195
     21 C          62.6470   85.7975   11.3370 C.ar    1  UNL1        0.1191
     22 N          62.6096   87.0615   12.1437 N.ar    1  UNL1       -0.2446
@<TRIPOS>BOND
     1    14    15    1
     2    15    12    1
     3    12    13    1
     4    12    11    1
     5    11    10    1
     6    10     1    1
     7     1     2    2
     8     2    16    1
     9    16    17    1
    10    17    18   ar
    11    18    19   ar
    12    19    20   ar
    13    20    21   ar
    14    21    22   ar
    15     2     3    1
    16     3     4   ar
    17     4     5   ar
    18     5     6   ar
    19     6     7   ar
    20     7     8   ar
    21     8     9    1
    22     9     1    1
    23    22    17   ar
    24     8     3   ar
@<TRIPOS>MOLECULE
*****
 22 24 0 0 0
SMALL
GASTEIGER

@<TRIPOS>ATOM
      1 C          63.6917   90.7323   13.2204 C.2     1  UNL1       -0.0420
      2 C          64.0280   90.7496   14.6821 C.2     1  UNL1       -0.0240
      3 C          65.2153   91.6459   14.8742 C.ar    1  UNL1       -0.0078
      4 C          65.9858   92.0426   16.0984 C.ar    1  UNL1       -0.0006
      5 C          67.1539   92.9761   15.9796 C.ar    1  UNL1       -0.0000
      6 C          67.5515   93.5128   14.6365 C.ar    1  UNL1       -0.0003
      7 C          66.7810   93.1161   13.4123 C.ar    1  UNL1       -0.0040
      8 C          65.6129   92.1826   13.5311 C.ar    1  UNL1       -0.0184
      9 C          64.6712   91.6180   12.5091 C.3     1  UNL1        0.0480
     10 C          62.5724   89.9643   12.5822 C.3     1  UNL1        0.0394
     11 C          62.8409   88.6272   11.9578 C.3     1  UNL1        0.0765
     12 N          61.7290   87.8753   11.2881 N.3     1  UNL1       -0.2712
     13 C          60.3579   88.4783   11.2077 C.3     1  UNL1        0.0896
     14 C          62.3213   85.3643   11.5946 C.3     1  UNL1        0.0188
     15 C          61.9882   86.5205   10.6989 C.3     1  UNL1        0.0722
     16 C          63.3040   90.0018   15.7623 C.3     1  UNL1        0.0730
     17 C          63.4815   88.5182   15.8957 C.ar    1  UNL1        0.0825
     18 C          62.9214   87.8001   17.0876 C.ar    1  UNL1        0.1139
     19 N          63.0989   86.3166   17.2211 N.ar    1  UNL1       -0.2394
     20 C          63.8365   85.5513   16.1627 C.ar    1  UNL1        0.1195
     21 C          64.3966   86.2695   14.9708 C.ar    1  UNL1        0.1191
     22 N          64.2191   87.7529   14.8373 N.ar    1  UNL1       -0.2446
@<TRIPOS>BOND
     1    14    15    1
     2    15    12    1
     3    12    13    1
     4    12    11    1
     5    11    10    1
     6    10     1    1
     7     1     2    2
     8     2    16    1
     9    16    17    1
    10    17    18   ar
    11    18    19   ar
    12    19    20   ar
    13    20    21   ar
    14    21    22   ar
    15     2     3    1
    16     3     4   ar
    17     4     5   ar
    18     5     6   ar
    19     6     7   ar
    20     7     8   ar
    21     8     9    1
    22     9     1    1
    23    22    17   ar
    24     8     3   ar
@<TRIPOS>MOLECULE
*****
 22 24 0 0 0
SMALL
GASTEIGER

@<TRIPOS>ATOM
      1 C          63.2390   84.5914    9.9079 C.2     1  UNL1       -0.0420
      2 C          62.5227   85.1135   11.1180 C.2     1  UNL1       -0.0240
      3 C          62.8419   84.2095   12.2716 C.ar    1  UNL1       -0.0078
      4 C          62.4187   84.2308   13.7104 C.ar    1  UNL1       -0.0006
      5 C          62.9091   83.1713   14.6522 C.ar    1  UNL1       -0.0000
      6 C          63.8226   82.0904   14.1551 C.ar    1  UNL1       -0.0003
      7 C          64.2459   82.0691   12.7162 C.ar    1  UNL1       -0.0040
      8 C          63.7555   83.1286   11.7745 C.ar    1  UNL1       -0.0184
      9 C          64.0009   83.3647   10.3136 C.3     1  UNL1        0.0480
     10 C          63.2003   85.1908    8.5334 C.3     1  UNL1        0.0394
     11 C          62.0786   86.1085    8.1467 C.3     1  UNL1        0.0765
     12 N          60.9353   85.5909    7.3252 N.3     1  UNL1       -0.2712
     13 C          61.1608   84.4815    6.3410 C.3     1  UNL1        0.0896
     14 C          59.3913   87.4747    8.2291 C.3     1  UNL1        0.0188
     15 C          59.5666   86.1826    7.4877 C.3     1  UNL1        0.0722
     16 C          61.6419   86.3267   11.1660 C.3     1  UNL1        0.0730
     17 C          62.2323   87.6704   11.4761 C.ar    1  UNL1        0.0825
     18 C          61.9024   88.8518   10.6127 C.ar    1  UNL1        0.1139
     19 N          62.4927   90.1955   10.9227 N.ar    1  UNL1       -0.2394
     20 C          63.4129   90.3577   12.0961 C.ar    1  UNL1        0.1195
     21 C          63.7427   89.1763   12.9595 C.ar    1  UNL1        0.1191
     22 N          63.1524   87.8326   12.6496 N.ar    1  UNL1       -0.2446
@<TRIPOS>BOND
     1    14    15    1
     2    15    12    1
     3    12    13    1
     4    12    11    1
     5    11    10    1
     6    10     1    1
     7     1     2    2
     8     2    16    1
     9    16    17    1
    10    17    18   ar
    11    18    19   ar
    12    19    20   ar
    13    20    21   ar
    14    21    22   ar
    15     2     3    1
    16     3     4   ar
    17     4     5   ar
    18     5     6   ar
    19     6     7   ar
    20     7     8   ar
    21     8     9    1
    22     9     1    1
    23    22    17   ar
    24     8     3   ar
@<TRIPOS>MOLECULE
*****
 22 24 0 0 0
SMALL
GASTEIGER

@<TRIPOS>ATOM
      1 C          62.8379   85.7909   11.9808 C.2     1  UNL1       -0.0420
      2 C          63.6373   85.2349   13.1218 C.2     1  UNL1       -0.0240
      3 C          63.5242   83.7397   13.0819 C.ar    1  UNL1       -0.0078
      4 C          64.1004   82.6658   13.9564 C.ar    1  UNL1       -0.0006
      5 C          63.8073   81.2239   13.6652 C.ar    1  UNL1       -0.0000
      6 C          62.9379   80.8558   12.4996 C.ar    1  UNL1       -0.0003
      7 C          62.3617   81.9296   11.6251 C.ar    1  UNL1       -0.0040
      8 C          62.6548   83.3715   11.9163 C.ar    1  UNL1       -0.0184
      9 C          62.2307   84.6393   11.2358 C.3     1  UNL1        0.0480
     10 C          62.6744   87.2434   11.6440 C.3     1  UNL1        0.0394
     11 C          62.0578   87.6455   10.3371 C.3     1  UNL1        0.0765
     12 N          60.5707   87.8084   10.2281 N.3     1  UNL1       -0.2712
     13 C          59.8404   87.2539    9.0410 C.3     1  UNL1        0.0896
     14 C          60.1126   89.9660   11.6011 C.3     1  UNL1        0.0188
     15 C          59.8138   88.5260   11.3062 C.3     1  UNL1        0.0722
     16 C          64.4137   86.0338   14.1263 C.3     1  UNL1        0.0730
     17 C          63.7709   86.4411   15.4190 C.ar    1  UNL1        0.0825
     18 C          63.2225   85.3968   16.3457 C.ar    1  UNL1        0.1139
     19 N          62.5798   85.8040   17.6383 N.ar    1  UNL1       -0.2394
     20 C          62.4855   87.2556   18.0044 C.ar    1  UNL1        0.1195
     21 C          63.0340   88.2999   17.0778 C.ar    1  UNL1        0.1191
     22 N          63.6767   87.8927   15.7851 N.ar    1  UNL1       -0.2446
@<TRIPOS>BOND
     1    14    15    1
     2    15    12    1
     3    12    13    1
     4    12    11    1
     5    11    10    1
     6    10     1    1
     7     1     2    2
     8     2    16    1
     9    16    17    1
    10    17    18   ar
    11    18    19   ar
    12    19    20   ar
    13    20    21   ar
    14    21    22   ar
    15     2     3    1
    16     3     4   ar
    17     4     5   ar
    18     5     6   ar
    19     6     7   ar
    20     7     8   ar
    21     8     9    1
    22     9     1    1
    23    22    17   ar
    24     8     3   ar
@<TRIPOS>MOLECULE
*****
 22 24 0 0 0
SMALL
GASTEIGER

@<TRIPOS>ATOM
      1 C          62.2476   89.6624   10.2777 C.2     1  UNL1       -0.0420
      2 C          62.3228   88.6471   11.3792 C.2     1  UNL1       -0.0240
      3 C          63.2229   89.1900   12.4494 C.ar    1  UNL1       -0.0078
      4 C          63.6666   88.6287   13.7677 C.ar    1  UNL1       -0.0006
      5 C          64.5913   89.4184   14.6459 C.ar    1  UNL1       -0.0000
      6 C          65.0724   90.7692   14.2057 C.ar    1  UNL1       -0.0003
      7 C          64.6288   91.3304   12.8874 C.ar    1  UNL1       -0.0040
      8 C          63.7040   90.5408   12.0092 C.ar    1  UNL1       -0.0184
      9 C          63.1012   90.8328   10.6670 C.3     1  UNL1        0.0480
     10 C          61.4575   89.5305    9.0094 C.3     1  UNL1        0.0394
     11 C          60.0409   89.0397    9.0559 C.3     1  UNL1        0.0765
     12 N          59.3980   88.4860    7.8190 N.3     1  UNL1       -0.2712
     13 C          59.1474   89.3790    6.6400 C.3     1  UNL1        0.0896
     14 C          60.0628   85.9782    7.6819 C.3     1  UNL1        0.0188
     15 C          59.0057   87.0394    7.7609 C.3     1  UNL1        0.0722
     16 C          61.6211   87.3216   11.4060 C.3     1  UNL1        0.0730
     17 C          62.4184   86.0510   11.4164 C.ar    1  UNL1        0.0825
     18 C          62.7011   85.3324   10.1304 C.ar    1  UNL1        0.1139
     19 N          63.4983   84.0619   10.1408 N.ar    1  UNL1       -0.2394
     20 C          64.0129   83.5099   11.4371 C.ar    1  UNL1        0.1195
     21 C          63.7302   84.2285   12.7231 C.ar    1  UNL1        0.1191
     22 N          62.9330   85.4990   12.7128 N.ar    1  UNL1       -0.2446
@<TRIPOS>BOND
     1    14    15    1
     2    15    12    1
     3    12    13    1
     4    12    11    1
     5    11    10    1
     6    10     1    1
     7     1     2    2
     8     2    16    1
     9    16    17    1
    10    17    18   ar
    11    18    19   ar
    12    19    20   ar
    13    20    21   ar
    14    21    22   ar
    15     2     3    1
    16     3     4   ar
    17     4     5   ar
    18     5     6   ar
    19     6     7   ar
    20     7     8   ar
    21     8     9    1
    22     9     1    1
    23    22    17   ar
    24     8     3   ar
