@<TRIPOS>MOLECULE
*****
 34 39 0 0 0
SMALL
GASTEIGER

@<TRIPOS>ATOM
      1 O          63.4786   87.6085   12.7679 O.2     1  UNL1       -0.2747
      2 C          62.5828   87.5165   11.5684 C.2     1  UNL1        0.2294
      3 N          61.5231   88.5539   11.3424 N.am    1  UNL1       -0.2754
      4 C          62.7465   86.3871   10.5949 C.3     1  UNL1        0.1211
      5 C          62.8978   86.6751    9.1306 C.3     1  UNL1        0.0804
      6 N          63.0615   85.5457    8.1571 N.3     1  UNL1       -0.2969
      7 C          63.0739   84.1284    8.6479 C.3     1  UNL1        0.0714
      8 C          62.9225   83.8404   10.1122 C.3     1  UNL1        0.0490
      9 C          62.7588   84.9697   11.0857 C.3     1  UNL1        0.1224
     10 O          62.5876   85.9900   12.1719 O.3     1  UNL1       -0.3492
     11 C          62.4751   85.2618   13.4784 C.3     1  UNL1        0.1687
     12 C          62.5768   83.7913   13.1997 C.ar    1  UNL1        0.0079
     13 C          62.5323   82.5935   14.1014 C.ar    1  UNL1        0.0299
     14 C          62.6632   81.2151   13.5244 C.ar    1  UNL1        0.1671
     15 F          62.6187   80.0172   14.4260 F       1  UNL1       -0.2018
     16 C          62.8385   81.0346   12.0456 C.ar    1  UNL1        0.1671
     17 F          62.9694   79.6563   11.4686 F       1  UNL1       -0.2018
     18 C          62.8830   82.2325   11.1439 C.ar    1  UNL1        0.0297
     19 C          62.7521   83.6109   11.7209 C.ar    1  UNL1        0.0033
     20 H          63.9476   85.6983    7.6755 H       1  UNL1        0.1233
     21 C          60.6272   88.4618   10.1428 C.3     1  UNL1        0.0758
     22 C          60.1066   89.0447    8.8625 C.3     1  UNL1        0.0215
     23 C          59.5962   87.7195    9.3454 C.3     1  UNL1        0.0215
     24 C          61.3594   89.6832   12.3158 C.3     1  UNL1        0.1392
     25 C          62.5277   90.1396   13.1385 C.ar    1  UNL1        0.0790
     26 N          62.6085   89.7779   14.5919 N.ar    1  UNL1       -0.2464
     27 C          63.7768   90.2343   15.4146 C.ar    1  UNL1        0.0985
     28 C          64.8643   91.0525   14.7838 C.ar    1  UNL1        0.0207
     29 C          64.7835   91.4143   13.3303 C.ar    1  UNL1        0.0027
     30 C          65.8710   92.2325   12.6995 C.ar    1  UNL1        0.0001
     31 C          65.7902   92.5942   11.2461 C.ar    1  UNL1        0.0000
     32 C          64.6219   92.1378   10.4234 C.ar    1  UNL1        0.0000
     33 C          63.5344   91.3196   11.0542 C.ar    1  UNL1        0.0012
     34 C          63.6152   90.9579   12.5076 C.ar    1  UNL1        0.0153
@<TRIPOS>BOND
     1     1     2    2
     2     4     2    1
     3     4     5    1
     4     5     6    1
     5     6     7    1
     6     7     8    1
     7     9     8    1
     8     9    10    1
     9    10    11    1
    10    11    12    1
    11    12    13   ar
    12    13    14   ar
    13    14    15    1
    14    14    16   ar
    15    16    17    1
    16    16    18   ar
    17    18    19   ar
    18     2     3   am
    19     3    24    1
    20    24    25    1
    21    25    26   ar
    22    26    27   ar
    23    27    28   ar
    24    28    29   ar
    25    29    30   ar
    26    30    31   ar
    27    31    32   ar
    28    32    33   ar
    29    33    34   ar
    30     3    21    1
    31    21    22    1
    32    22    23    1
    33     9     4    1
    34    19    12   ar
    35    34    25   ar
    36    23    21    1
    37    19     9    1
    38    34    29   ar
    39     6    20    1
@<TRIPOS>MOLECULE
*****
 34 39 0 0 0
SMALL
GASTEIGER

@<TRIPOS>ATOM
      1 O          64.4434   88.1177   13.1155 O.2     1  UNL1       -0.2747
      2 C          63.1614   88.3847   12.3839 C.2     1  UNL1        0.2294
      3 N          62.4513   89.6930   12.5680 N.am    1  UNL1       -0.2754
      4 C          62.5896   87.3433   11.4681 C.3     1  UNL1        0.1211
      5 C          61.8931   87.7559   10.2054 C.3     1  UNL1        0.0804
      6 N          61.3214   86.7145    9.2896 N.3     1  UNL1       -0.2969
      7 C          61.4461   85.2606    9.6367 C.3     1  UNL1        0.0714
      8 C          62.1426   84.8480   10.8995 C.3     1  UNL1        0.0490
      9 C          62.7143   85.8893   11.8152 C.3     1  UNL1        0.1224
     10 O          63.3326   86.8124   12.8231 O.3     1  UNL1       -0.3492
     11 C          63.9152   85.9748   13.9227 C.3     1  UNL1        0.1687
     12 C          63.6571   84.5341   13.5944 C.ar    1  UNL1        0.0079
     13 C          64.0020   83.2635   14.3131 C.ar    1  UNL1        0.0299
     14 C          63.6047   81.9400   13.7294 C.ar    1  UNL1        0.1671
     15 F          63.9495   80.6695   14.4481 F       1  UNL1       -0.2018
     16 C          62.8625   81.8873   12.4269 C.ar    1  UNL1        0.1671
     17 F          62.4652   80.5639   11.8432 F       1  UNL1       -0.2018
     18 C          62.5176   83.1579   11.7081 C.ar    1  UNL1        0.0297
     19 C          62.9149   84.4813   12.2918 C.ar    1  UNL1        0.0033
     20 H          61.7715   86.8405    8.3830 H       1  UNL1        0.1233
     21 C          61.1692   89.9600   11.8364 C.3     1  UNL1        0.0758
     22 C          60.4471   90.4674   10.6235 C.3     1  UNL1        0.0215
     23 C          59.6709   89.9148   11.7820 C.3     1  UNL1        0.0215
     24 C          63.0230   90.7344   13.4838 C.3     1  UNL1        0.1392
     25 C          64.2114   91.5416   13.0523 C.ar    1  UNL1        0.0790
     26 N          64.4217   91.8490   11.5994 N.ar    1  UNL1       -0.2464
     27 C          65.6101   92.6562   11.1679 C.ar    1  UNL1        0.0985
     28 C          66.5882   93.1560   12.1895 C.ar    1  UNL1        0.0207
     29 C          66.3778   92.8486   13.6425 C.ar    1  UNL1        0.0027
     30 C          67.3559   93.3484   14.6641 C.ar    1  UNL1        0.0001
     31 C          67.1455   93.0410   16.1171 C.ar    1  UNL1        0.0000
     32 C          65.9571   92.2338   16.5485 C.ar    1  UNL1        0.0000
     33 C          64.9791   91.7340   15.5270 C.ar    1  UNL1        0.0012
     34 C          65.1894   92.0414   14.0740 C.ar    1  UNL1        0.0153
@<TRIPOS>BOND
     1     1     2    2
     2     4     2    1
     3     4     5    1
     4     5     6    1
     5     6     7    1
     6     7     8    1
     7     9     8    1
     8     9    10    1
     9    10    11    1
    10    11    12    1
    11    12    13   ar
    12    13    14   ar
    13    14    15    1
    14    14    16   ar
    15    16    17    1
    16    16    18   ar
    17    18    19   ar
    18     2     3   am
    19     3    24    1
    20    24    25    1
    21    25    26   ar
    22    26    27   ar
    23    27    28   ar
    24    28    29   ar
    25    29    30   ar
    26    30    31   ar
    27    31    32   ar
    28    32    33   ar
    29    33    34   ar
    30     3    21    1
    31    21    22    1
    32    22    23    1
    33     9     4    1
    34    19    12   ar
    35    34    25   ar
    36    23    21    1
    37    19     9    1
    38    34    29   ar
    39     6    20    1
@<TRIPOS>MOLECULE
*****
 34 39 0 0 0
SMALL
GASTEIGER

@<TRIPOS>ATOM
      1 O          63.8235   89.8491   10.1883 O.2     1  UNL1       -0.2747
      2 C          62.4390   89.4338   10.5890 C.2     1  UNL1        0.2294
      3 N          61.6535   90.2733   11.5525 N.am    1  UNL1       -0.2754
      4 C          61.8399   88.1789   10.0263 C.3     1  UNL1        0.1211
      5 C          60.9885   88.2419    8.7930 C.3     1  UNL1        0.0804
      6 N          60.3895   86.9871    8.2304 N.3     1  UNL1       -0.2969
      7 C          60.6419   85.6693    8.9010 C.3     1  UNL1        0.0714
      8 C          61.4933   85.6064   10.1343 C.3     1  UNL1        0.0490
      9 C          62.0923   86.8612   10.6970 C.3     1  UNL1        0.1224
     10 O          62.7547   88.0258   11.3715 O.3     1  UNL1       -0.3492
     11 C          63.5027   87.5070   12.5637 C.3     1  UNL1        0.1687
     12 C          63.3025   86.0216   12.6261 C.ar    1  UNL1        0.0079
     13 C          63.8013   84.9811   13.5843 C.ar    1  UNL1        0.0299
     14 C          63.4285   83.5413   13.3889 C.ar    1  UNL1        0.1671
     15 F          63.9273   82.5007   14.3471 F       1  UNL1       -0.2018
     16 C          62.5569   83.1422   12.2352 C.ar    1  UNL1        0.1671
     17 F          62.1841   81.7025   12.0398 F       1  UNL1       -0.2018
     18 C          62.0581   84.1828   11.2769 C.ar    1  UNL1        0.0297
     19 C          62.4309   85.6225   11.4724 C.ar    1  UNL1        0.0033
     20 H          60.7318   86.9008    7.2734 H       1  UNL1        0.1233
     21 C          60.2689   89.8579   11.9533 C.3     1  UNL1        0.0758
     22 C          58.7889   90.1019   11.9552 C.3     1  UNL1        0.0215
     23 C          59.3509   88.8946   12.6454 C.3     1  UNL1        0.0215
     24 C          62.2525   91.5280   12.1152 C.3     1  UNL1        0.1392
     25 C          63.4554   91.4500   13.0079 C.ar    1  UNL1        0.0790
     26 N          63.3129   90.9560   14.4170 N.ar    1  UNL1       -0.2464
     27 C          64.5158   90.8780   15.3097 C.ar    1  UNL1        0.0985
     28 C          65.8612   91.2940   14.7933 C.ar    1  UNL1        0.0207
     29 C          66.0038   91.7881   13.3842 C.ar    1  UNL1        0.0027
     30 C          67.3493   92.2041   12.8678 C.ar    1  UNL1        0.0001
     31 C          67.4918   92.6981   11.4587 C.ar    1  UNL1        0.0000
     32 C          66.2889   92.7761   10.5660 C.ar    1  UNL1        0.0000
     33 C          64.9435   92.3601   11.0823 C.ar    1  UNL1        0.0012
     34 C          64.8009   91.8661   12.4914 C.ar    1  UNL1        0.0153
@<TRIPOS>BOND
     1     1     2    2
     2     4     2    1
     3     4     5    1
     4     5     6    1
     5     6     7    1
     6     7     8    1
     7     9     8    1
     8     9    10    1
     9    10    11    1
    10    11    12    1
    11    12    13   ar
    12    13    14   ar
    13    14    15    1
    14    14    16   ar
    15    16    17    1
    16    16    18   ar
    17    18    19   ar
    18     2     3   am
    19     3    24    1
    20    24    25    1
    21    25    26   ar
    22    26    27   ar
    23    27    28   ar
    24    28    29   ar
    25    29    30   ar
    26    30    31   ar
    27    31    32   ar
    28    32    33   ar
    29    33    34   ar
    30     3    21    1
    31    21    22    1
    32    22    23    1
    33     9     4    1
    34    19    12   ar
    35    34    25   ar
    36    23    21    1
    37    19     9    1
    38    34    29   ar
    39     6    20    1
@<TRIPOS>MOLECULE
*****
 34 39 0 0 0
SMALL
GASTEIGER

@<TRIPOS>ATOM
      1 O          65.2282   85.1423   13.0188 O.2     1  UNL1       -0.2747
      2 C          64.3235   85.7880   14.0261 C.2     1  UNL1        0.2294
      3 N          63.7216   84.9677   15.1282 N.am    1  UNL1       -0.2754
      4 C          64.0208   87.2541   13.9312 C.3     1  UNL1        0.1211
      5 C          64.6346   88.2115   14.9093 C.3     1  UNL1        0.0804
      6 N          64.3318   89.6775   14.8144 N.3     1  UNL1       -0.2969
      7 C          63.4153   90.1862   13.7415 C.3     1  UNL1        0.0714
      8 C          62.8015   89.2288   12.7634 C.3     1  UNL1        0.0490
      9 C          63.1042   87.7628   12.8583 C.3     1  UNL1        0.1224
     10 O          63.3130   86.2776   12.8288 O.3     1  UNL1       -0.3492
     11 C          62.5117   85.7194   11.6903 C.3     1  UNL1        0.1687
     12 C          61.8077   86.8595   11.0160 C.ar    1  UNL1        0.0079
     13 C          60.8805   86.9109    9.8381 C.ar    1  UNL1        0.0299
     14 C          60.3195   88.2252    9.3819 C.ar    1  UNL1        0.1671
     15 F          59.3924   88.2766    8.2039 F       1  UNL1       -0.2018
     16 C          60.6858   89.4880   10.1037 C.ar    1  UNL1        0.1671
     17 F          60.1248   90.8023    9.6476 F       1  UNL1       -0.2018
     18 C          61.6130   89.4367   11.2818 C.ar    1  UNL1        0.0297
     19 C          62.1739   88.1224   11.7379 C.ar    1  UNL1        0.0033
     20 H          65.2245   90.1551   14.6899 H       1  UNL1        0.1233
     21 C          62.8169   85.6134   16.1355 C.3     1  UNL1        0.0758
     22 C          62.6285   86.3513   17.4278 C.3     1  UNL1        0.0215
     23 C          61.4383   85.9941   16.5877 C.3     1  UNL1        0.0215
     24 C          64.0243   83.5016   15.2230 C.3     1  UNL1        0.1392
     25 C          63.1775   82.5113   14.4798 C.ar    1  UNL1        0.0790
     26 N          62.0725   81.7872   15.1900 N.ar    1  UNL1       -0.2464
     27 C          61.2257   80.7969   14.4468 C.ar    1  UNL1        0.0985
     28 C          61.4841   80.5307   12.9934 C.ar    1  UNL1        0.0207
     29 C          62.5892   81.2549   12.2831 C.ar    1  UNL1        0.0027
     30 C          62.8476   80.9887   10.8298 C.ar    1  UNL1        0.0001
     31 C          63.9527   81.7129   10.1196 C.ar    1  UNL1        0.0000
     32 C          64.7994   82.7032   10.8628 C.ar    1  UNL1        0.0000
     33 C          64.5410   82.9693   12.3162 C.ar    1  UNL1        0.0012
     34 C          63.4359   82.2452   13.0264 C.ar    1  UNL1        0.0153
@<TRIPOS>BOND
     1     1     2    2
     2     4     2    1
     3     4     5    1
     4     5     6    1
     5     6     7    1
     6     7     8    1
     7     9     8    1
     8     9    10    1
     9    10    11    1
    10    11    12    1
    11    12    13   ar
    12    13    14   ar
    13    14    15    1
    14    14    16   ar
    15    16    17    1
    16    16    18   ar
    17    18    19   ar
    18     2     3   am
    19     3    24    1
    20    24    25    1
    21    25    26   ar
    22    26    27   ar
    23    27    28   ar
    24    28    29   ar
    25    29    30   ar
    26    30    31   ar
    27    31    32   ar
    28    32    33   ar
    29    33    34   ar
    30     3    21    1
    31    21    22    1
    32    22    23    1
    33     9     4    1
    34    19    12   ar
    35    34    25   ar
    36    23    21    1
    37    19     9    1
    38    34    29   ar
    39     6    20    1
@<TRIPOS>MOLECULE
*****
 34 39 0 0 0
SMALL
GASTEIGER

@<TRIPOS>ATOM
      1 O          63.7076   87.7696   12.9823 O.2     1  UNL1       -0.2747
      2 C          62.9148   88.3656   11.8570 C.2     1  UNL1        0.2294
      3 N          61.7924   87.5879   11.2361 N.am    1  UNL1       -0.2754
      4 C          63.2445   89.7392   11.3524 C.3     1  UNL1        0.1211
      5 C          62.7518   90.1822   10.0067 C.3     1  UNL1        0.0804
      6 N          63.0815   91.5558    9.5022 N.3     1  UNL1       -0.2969
      7 C          63.9039   92.4863   10.3434 C.3     1  UNL1        0.0714
      8 C          64.3967   92.0433   11.6891 C.3     1  UNL1        0.0490
      9 C          64.0670   90.6698   12.1936 C.3     1  UNL1        0.1224
     10 O          63.8185   89.3331   12.8274 O.3     1  UNL1       -0.3492
     11 C          64.4927   89.3228   14.1673 C.3     1  UNL1        0.1687
     12 C          65.1579   90.6532   14.3617 C.ar    1  UNL1        0.0079
     13 C          65.9692   91.2140   15.4917 C.ar    1  UNL1        0.0299
     14 C          66.5174   92.6074   15.4021 C.ar    1  UNL1        0.1671
     15 F          67.3287   93.1683   16.5322 F       1  UNL1       -0.2018
     16 C          66.2543   93.4398   14.1823 C.ar    1  UNL1        0.1671
     17 F          66.8025   94.8332   14.0927 F       1  UNL1       -0.2018
     18 C          65.4430   92.8790   13.0522 C.ar    1  UNL1        0.0297
     19 C          64.8948   91.4856   13.1418 C.ar    1  UNL1        0.0033
     20 H          62.1935   92.0256    9.3256 H       1  UNL1        0.1233
     21 C          60.9996   88.1839   10.1107 C.3     1  UNL1        0.0758
     22 C          60.0489   89.2261    9.6009 C.3     1  UNL1        0.0215
     23 C          60.5774   88.1741    8.6715 C.3     1  UNL1        0.0215
     24 C          61.4627   86.2144   11.7406 C.3     1  UNL1        0.1392
     25 C          62.3006   85.0416   11.3252 C.ar    1  UNL1        0.0790
     26 N          62.7948   84.9358    9.9130 N.ar    1  UNL1       -0.2464
     27 C          63.6327   83.7630    9.4975 C.ar    1  UNL1        0.0985
     28 C          63.9763   82.6961   10.4943 C.ar    1  UNL1        0.0207
     29 C          63.4821   82.8019   11.9066 C.ar    1  UNL1        0.0027
     30 C          63.8257   81.7351   12.9034 C.ar    1  UNL1        0.0001
     31 C          63.3314   81.8409   14.3156 C.ar    1  UNL1        0.0000
     32 C          62.4935   83.0137   14.7311 C.ar    1  UNL1        0.0000
     33 C          62.1499   84.0806   13.7343 C.ar    1  UNL1        0.0012
     34 C          62.6442   83.9747   12.3221 C.ar    1  UNL1        0.0153
@<TRIPOS>BOND
     1     1     2    2
     2     4     2    1
     3     4     5    1
     4     5     6    1
     5     6     7    1
     6     7     8    1
     7     9     8    1
     8     9    10    1
     9    10    11    1
    10    11    12    1
    11    12    13   ar
    12    13    14   ar
    13    14    15    1
    14    14    16   ar
    15    16    17    1
    16    16    18   ar
    17    18    19   ar
    18     2     3   am
    19     3    24    1
    20    24    25    1
    21    25    26   ar
    22    26    27   ar
    23    27    28   ar
    24    28    29   ar
    25    29    30   ar
    26    30    31   ar
    27    31    32   ar
    28    32    33   ar
    29    33    34   ar
    30     3    21    1
    31    21    22    1
    32    22    23    1
    33     9     4    1
    34    19    12   ar
    35    34    25   ar
    36    23    21    1
    37    19     9    1
    38    34    29   ar
    39     6    20    1
@<TRIPOS>MOLECULE
*****
 34 39 0 0 0
SMALL
GASTEIGER

@<TRIPOS>ATOM
      1 O          63.3486   92.3374   11.8819 O.2     1  UNL1       -0.2747
      2 C          64.4379   91.7726   12.7446 C.2     1  UNL1        0.2294
      3 N          65.7291   92.5187   12.9065 N.am    1  UNL1       -0.2754
      4 C          64.2362   90.4618   13.4453 C.3     1  UNL1        0.1211
      5 C          64.6440   90.3080   14.8806 C.3     1  UNL1        0.0804
      6 N          64.4422   88.9972   15.5813 N.3     1  UNL1       -0.2969
      7 C          63.8326   87.8402   14.8467 C.3     1  UNL1        0.0714
      8 C          63.4247   87.9939   13.4115 C.3     1  UNL1        0.0490
      9 C          63.6265   89.3047   12.7108 C.3     1  UNL1        0.1224
     10 O          63.7658   90.5479   11.8829 O.3     1  UNL1       -0.3492
     11 C          63.2332   90.2538   10.5118 C.3     1  UNL1        0.1687
     12 C          62.7647   88.8289   10.4922 C.ar    1  UNL1        0.0079
     13 C          62.1481   87.9899    9.4126 C.ar    1  UNL1        0.0299
     14 C          61.7747   86.5641    9.6919 C.ar    1  UNL1        0.1671
     15 F          61.1581   85.7251    8.6123 F       1  UNL1       -0.2018
     16 C          62.0178   85.9776   11.0509 C.ar    1  UNL1        0.1671
     17 F          61.6443   84.5520   11.3302 F       1  UNL1       -0.2018
     18 C          62.6344   86.8167   12.1306 C.ar    1  UNL1        0.0297
     19 C          63.0078   88.2424   11.8513 C.ar    1  UNL1        0.0033
     20 H          63.8442   89.1828   16.3865 H       1  UNL1        0.1233
     21 C          66.8186   91.9538   13.7692 C.3     1  UNL1        0.0758
     22 C          68.2248   91.4560   13.9263 C.3     1  UNL1        0.0215
     23 C          67.2992   91.4734   15.1064 C.3     1  UNL1        0.0215
     24 C          65.9310   93.8294   12.2058 C.3     1  UNL1        0.1392
     25 C          66.6658   93.8760   10.8989 C.ar    1  UNL1        0.0790
     26 N          67.8007   92.9293   10.6426 N.ar    1  UNL1       -0.2464
     27 C          68.5355   92.9758    9.3357 C.ar    1  UNL1        0.0985
     28 C          68.1355   93.9690    8.2853 C.ar    1  UNL1        0.0207
     29 C          67.0006   94.9157    8.5416 C.ar    1  UNL1        0.0027
     30 C          66.6005   95.9089    7.4912 C.ar    1  UNL1        0.0001
     31 C          65.4656   96.8556    7.7476 C.ar    1  UNL1        0.0000
     32 C          64.7308   96.8091    9.0544 C.ar    1  UNL1        0.0000
     33 C          65.1308   95.8159   10.1049 C.ar    1  UNL1        0.0012
     34 C          66.2657   94.8692    9.8485 C.ar    1  UNL1        0.0153
@<TRIPOS>BOND
     1     1     2    2
     2     4     2    1
     3     4     5    1
     4     5     6    1
     5     6     7    1
     6     7     8    1
     7     9     8    1
     8     9    10    1
     9    10    11    1
    10    11    12    1
    11    12    13   ar
    12    13    14   ar
    13    14    15    1
    14    14    16   ar
    15    16    17    1
    16    16    18   ar
    17    18    19   ar
    18     2     3   am
    19     3    24    1
    20    24    25    1
    21    25    26   ar
    22    26    27   ar
    23    27    28   ar
    24    28    29   ar
    25    29    30   ar
    26    30    31   ar
    27    31    32   ar
    28    32    33   ar
    29    33    34   ar
    30     3    21    1
    31    21    22    1
    32    22    23    1
    33     9     4    1
    34    19    12   ar
    35    34    25   ar
    36    23    21    1
    37    19     9    1
    38    34    29   ar
    39     6    20    1
@<TRIPOS>MOLECULE
*****
 34 39 0 0 0
SMALL
GASTEIGER

@<TRIPOS>ATOM
      1 O          63.7603   87.8804   12.7053 O.2     1  UNL1       -0.2747
      2 C          62.8444   88.7895   11.9407 C.2     1  UNL1        0.2294
      3 N          61.4241   88.3807   11.6847 N.am    1  UNL1       -0.2754
      4 C          63.3488   90.1075   11.4321 C.3     1  UNL1        0.1211
      5 C          62.9779   90.5715   10.0548 C.3     1  UNL1        0.0804
      6 N          63.4823   91.8894    9.5463 N.3     1  UNL1       -0.2969
      7 C          64.3577   92.7433   10.4150 C.3     1  UNL1        0.0714
      8 C          64.7286   92.2792   11.7923 C.3     1  UNL1        0.0490
      9 C          64.2242   90.9613   12.3009 C.3     1  UNL1        0.1224
     10 O          63.7978   89.6740   12.9423 O.3     1  UNL1       -0.3492
     11 C          64.3968   89.6201   14.3164 C.3     1  UNL1        0.1687
     12 C          65.1934   90.8740   14.5244 C.ar    1  UNL1        0.0079
     13 C          66.0021   91.3681   15.6870 C.ar    1  UNL1        0.0299
     14 C          66.7042   92.6911   15.6041 C.ar    1  UNL1        0.1671
     15 F          67.5129   93.1851   16.7667 F       1  UNL1       -0.2018
     16 C          66.5976   93.5199   14.3584 C.ar    1  UNL1        0.1671
     17 F          67.2996   94.8428   14.2755 F       1  UNL1       -0.2018
     18 C          65.7888   93.0258   13.1957 C.ar    1  UNL1        0.0297
     19 C          65.0868   91.7029   13.2787 C.ar    1  UNL1        0.0033
     20 H          62.6617   92.4492    9.3146 H       1  UNL1        0.1233
     21 C          60.5082   89.2899   10.9201 C.3     1  UNL1        0.0758
     22 C          59.5749   90.4637   10.8852 C.3     1  UNL1        0.0215
     23 C          59.8551   89.6907    9.6306 C.3     1  UNL1        0.0215
     24 C          60.9197   87.0628   12.1933 C.3     1  UNL1        0.1392
     25 C          61.7816   85.8395   12.0904 C.ar    1  UNL1        0.0790
     26 N          62.1430   85.0705   13.3265 N.ar    1  UNL1       -0.2464
     27 C          63.0050   83.8473   13.2236 C.ar    1  UNL1        0.0985
     28 C          63.5056   83.3930   11.8846 C.ar    1  UNL1        0.0207
     29 C          63.1443   84.1620   10.6484 C.ar    1  UNL1        0.0027
     30 C          63.6449   83.7077    9.3094 C.ar    1  UNL1        0.0001
     31 C          63.2836   84.4768    8.0733 C.ar    1  UNL1        0.0000
     32 C          62.4216   85.7000    8.1762 C.ar    1  UNL1        0.0000
     33 C          61.9210   86.1543    9.5152 C.ar    1  UNL1        0.0012
     34 C          62.2823   85.3853   10.7513 C.ar    1  UNL1        0.0153
@<TRIPOS>BOND
     1     1     2    2
     2     4     2    1
     3     4     5    1
     4     5     6    1
     5     6     7    1
     6     7     8    1
     7     9     8    1
     8     9    10    1
     9    10    11    1
    10    11    12    1
    11    12    13   ar
    12    13    14   ar
    13    14    15    1
    14    14    16   ar
    15    16    17    1
    16    16    18   ar
    17    18    19   ar
    18     2     3   am
    19     3    24    1
    20    24    25    1
    21    25    26   ar
    22    26    27   ar
    23    27    28   ar
    24    28    29   ar
    25    29    30   ar
    26    30    31   ar
    27    31    32   ar
    28    32    33   ar
    29    33    34   ar
    30     3    21    1
    31    21    22    1
    32    22    23    1
    33     9     4    1
    34    19    12   ar
    35    34    25   ar
    36    23    21    1
    37    19     9    1
    38    34    29   ar
    39     6    20    1
