@<TRIPOS>MOLECULE
*****
 35 39 0 0 0
SMALL
GASTEIGER

@<TRIPOS>ATOM
      1 C          63.1992   90.6784   11.5969 C.3     1  UNL1        0.1160
      2 C          63.4496   91.5565   10.4069 C.3     1  UNL1        0.0213
      3 C          64.6082   92.5091   10.4083 C.3     1  UNL1        0.0030
      4 C          65.5165   92.5837   11.5997 C.3     1  UNL1        0.0178
      5 C          65.2661   91.7056   12.7898 C.3     1  UNL1        0.0796
      6 N          64.1075   90.7529   12.7884 N.3     1  UNL1       -0.1549
      7 C          62.0406   89.7257   11.5956 C.3     1  UNL1        0.1525
      8 C          60.6293   89.2228   11.5224 C.3     1  UNL1        0.0452
      9 C          60.9105   90.6901   11.3883 C.3     1  UNL1        0.0452
     10 O          62.7683   88.4304   11.8025 O.3     1  UNL1       -0.4404
     11 O          62.2779   87.6128    9.3856 O.2     1  UNL1       -0.2262
     12 C          62.5999   87.3103   10.8191 C.2     1  UNL1        0.4048
     13 N          62.7535   85.8877   11.2692 N.am    1  UNL1       -0.2432
     14 C          63.0754   85.5852   12.7027 C.3     1  UNL1        0.1141
     15 C          63.2290   84.1626   13.1528 C.3     1  UNL1        0.0941
     16 N          63.0607   83.0425   12.1695 N.3     1  UNL1       -0.2676
     17 C          62.7387   83.3449   10.7361 C.3     1  UNL1        0.0941
     18 C          62.5851   84.7675   10.2859 C.3     1  UNL1        0.1141
     19 C          63.2143   81.6198   12.6196 C.3     1  UNL1        0.1043
     20 C          62.1792   80.9991   13.5102 C.3     1  UNL1        0.1544
     21 O          62.0208   81.4778   14.9230 O.3     1  UNL1       -0.3805
     22 H          62.8201   81.2629   15.4288 H       1  UNL1        0.2105
     23 C          66.1743   91.7802   13.9812 C.3     1  UNL1        0.0164
     24 C          66.4399   92.2349   15.3857 C.3     1  UNL1        0.0014
     25 C          67.4818   91.4546   14.6403 C.3     1  UNL1        0.0014
     26 S          63.8571   89.8748   13.9785 S.O2    1  UNL1        0.0633
     27 O          63.0981   90.9870   14.6394 O.2     1  UNL1       -0.1528
     28 O          64.4654   88.7123   13.6604 O.2     1  UNL1       -0.1528
     29 C          63.6066   88.9967   15.1685 C.ar    1  UNL1        0.1223
     30 C          63.0671   89.5885   16.4369 C.ar    1  UNL1        0.0208
     31 C          62.8167   88.7103   17.6270 C.ar    1  UNL1        0.0128
     32 C          63.1058   87.2405   17.5486 C.ar    1  UNL1        0.0578
     33 CL         62.8554   86.3625   18.7387 Cl      1  UNL1       -0.0822
     34 C          63.6453   86.6488   16.2803 C.ar    1  UNL1        0.0128
     35 C          63.8957   87.5269   15.0902 C.ar    1  UNL1        0.0208
@<TRIPOS>BOND
     1    11    12    2
     2    12    10    1
     3    10     7    1
     4     1     7    1
     5     1     2    1
     6     2     3    1
     7     3     4    1
     8     4     5    1
     9     5    23    1
    10    23    24    1
    11    24    25    1
    12     5     6    1
    13     6    26    1
    14    26    27    2
    15    26    28    2
    16    26    29    1
    17    29    30   ar
    18    30    31   ar
    19    31    32   ar
    20    32    33    1
    21    32    34   ar
    22    34    35   ar
    23     7     8    1
    24     8     9    1
    25    12    13   am
    26    13    14    1
    27    14    15    1
    28    15    16    1
    29    16    19    1
    30    19    20    1
    31    20    21    1
    32    16    17    1
    33    17    18    1
    34     9     7    1
    35    18    13    1
    36     6     1    1
    37    35    29   ar
    38    25    23    1
    39    21    22    1
@<TRIPOS>MOLECULE
*****
 35 39 0 0 0
SMALL
GASTEIGER

@<TRIPOS>ATOM
      1 C          60.5809   88.8209    9.7726 C.3     1  UNL1        0.1160
      2 C          59.8219   89.8053    8.9331 C.3     1  UNL1        0.0213
      3 C          59.4447   89.4555    7.5241 C.3     1  UNL1        0.0030
      4 C          59.8265   88.1214    6.9546 C.3     1  UNL1        0.0178
      5 C          60.5855   87.1370    7.7942 C.3     1  UNL1        0.0796
      6 N          60.9627   87.4868    9.2031 N.3     1  UNL1       -0.1549
      7 C          60.9582   89.1706   11.1817 C.3     1  UNL1        0.1525
      8 C          60.8166   89.5108   12.6357 C.3     1  UNL1        0.0452
      9 C          59.5950   89.2644   11.8007 C.3     1  UNL1        0.0452
     10 O          62.4523   89.1983   11.0520 O.3     1  UNL1       -0.4404
     11 O          62.9891   91.3810    9.7489 O.2     1  UNL1       -0.2262
     12 C          63.1726   90.5107   10.9568 C.2     1  UNL1        0.4048
     13 N          64.0763   90.9526   12.0694 N.am    1  UNL1       -0.2432
     14 C          64.2597   90.0823   13.2772 C.3     1  UNL1        0.1141
     15 C          65.1635   90.5243   14.3898 C.3     1  UNL1        0.0941
     16 N          65.8838   91.8365   14.2947 N.3     1  UNL1       -0.2676
     17 C          65.7004   92.7069   13.0869 C.3     1  UNL1        0.0941
     18 C          64.7966   92.2649   11.9742 C.3     1  UNL1        0.1141
     19 C          66.7875   92.2785   15.4073 C.3     1  UNL1        0.1043
     20 C          68.0463   93.0325   15.0964 C.3     1  UNL1        0.1544
     21 O          69.1574   92.3601   14.3457 O.3     1  UNL1       -0.3805
     22 H          69.5263   91.6445   14.8867 H       1  UNL1        0.2105
     23 C          60.9672   85.8028    7.2247 C.3     1  UNL1        0.0164
     24 C          60.5730   84.4612    6.6819 C.3     1  UNL1        0.0014
     25 C          62.0227   84.8337    6.7812 C.3     1  UNL1        0.0014
     26 S          61.7217   86.5023   10.0428 S.O2    1  UNL1        0.0633
     27 O          62.9523   86.7513    9.2220 O.2     1  UNL1       -0.1528
     28 O          60.8123   86.0707   10.9423 O.2     1  UNL1       -0.1528
     29 C          62.4808   85.5180   10.8823 C.ar    1  UNL1        0.1223
     30 C          62.5987   85.7287   12.3628 C.ar    1  UNL1        0.0208
     31 C          63.3578   84.7443   13.2023 C.ar    1  UNL1        0.0128
     32 C          63.9989   83.5492   12.5614 C.ar    1  UNL1        0.0578
     33 CL         64.7579   82.5649   13.4010 Cl      1  UNL1       -0.0822
     34 C          63.8810   83.3385   11.0810 C.ar    1  UNL1        0.0128
     35 C          63.1219   84.3229   10.2414 C.ar    1  UNL1        0.0208
@<TRIPOS>BOND
     1    11    12    2
     2    12    10    1
     3    10     7    1
     4     1     7    1
     5     1     2    1
     6     2     3    1
     7     3     4    1
     8     4     5    1
     9     5    23    1
    10    23    24    1
    11    24    25    1
    12     5     6    1
    13     6    26    1
    14    26    27    2
    15    26    28    2
    16    26    29    1
    17    29    30   ar
    18    30    31   ar
    19    31    32   ar
    20    32    33    1
    21    32    34   ar
    22    34    35   ar
    23     7     8    1
    24     8     9    1
    25    12    13   am
    26    13    14    1
    27    14    15    1
    28    15    16    1
    29    16    19    1
    30    19    20    1
    31    20    21    1
    32    16    17    1
    33    17    18    1
    34     9     7    1
    35    18    13    1
    36     6     1    1
    37    35    29   ar
    38    25    23    1
    39    21    22    1
@<TRIPOS>MOLECULE
*****
 35 39 0 0 0
SMALL
GASTEIGER

@<TRIPOS>ATOM
      1 C          60.5854   88.7692    9.7513 C.3     1  UNL1        0.1160
      2 C          59.8290   89.7574    8.9139 C.3     1  UNL1        0.0213
      3 C          59.4578   89.4147    7.5015 C.3     1  UNL1        0.0030
      4 C          59.8430   88.0839    6.9266 C.3     1  UNL1        0.0178
      5 C          60.5994   87.0957    7.7641 C.3     1  UNL1        0.0796
      6 N          60.9706   87.4384    9.1764 N.3     1  UNL1       -0.1549
      7 C          60.9567   89.1118   11.1637 C.3     1  UNL1        0.1525
      8 C          60.8087   89.4547   12.6165 C.3     1  UNL1        0.0452
      9 C          59.5902   89.2314   11.7706 C.3     1  UNL1        0.0452
     10 O          62.4522   89.1112   11.0473 O.3     1  UNL1       -0.4404
     11 O          63.3470   88.8686   13.4743 O.2     1  UNL1       -0.2262
     12 C          63.2928   89.6234   12.1792 C.2     1  UNL1        0.4048
     13 N          64.0790   90.8903   12.0159 N.am    1  UNL1       -0.2432
     14 C          64.0248   91.6451   10.7208 C.3     1  UNL1        0.1141
     15 C          64.8111   92.9120   10.5576 C.3     1  UNL1        0.0941
     16 N          65.6516   93.4242   11.6894 N.3     1  UNL1       -0.2676
     17 C          65.7059   92.6695   12.9846 C.3     1  UNL1        0.0941
     18 C          64.9196   91.4025   13.1479 C.3     1  UNL1        0.1141
     19 C          66.4379   94.6911   11.5262 C.3     1  UNL1        0.1043
     20 C          66.9164   95.1070   10.1668 C.3     1  UNL1        0.1544
     21 O          68.2456   94.6299    9.6611 O.3     1  UNL1       -0.3805
     22 H          68.9535   95.0088   10.2053 H       1  UNL1        0.2105
     23 C          60.9846   85.7649    7.1891 C.3     1  UNL1        0.0164
     24 C          62.0423   84.8019    6.7377 C.3     1  UNL1        0.0014
     25 C          60.5940   84.4228    6.6448 C.3     1  UNL1        0.0014
     26 S          61.7271   86.4502   10.0139 S.O2    1  UNL1        0.0633
     27 O          62.9519   86.6805    9.1792 O.2     1  UNL1       -0.1528
     28 O          60.8222   86.0339   10.9251 O.2     1  UNL1       -0.1528
     29 C          62.4836   85.4621   10.8513 C.ar    1  UNL1        0.1223
     30 C          62.5483   85.6347   12.3399 C.ar    1  UNL1        0.0208
     31 C          63.3049   84.6465   13.1774 C.ar    1  UNL1        0.0128
     32 C          63.9965   83.4857   12.5262 C.ar    1  UNL1        0.0578
     33 CL         64.7530   82.4976   13.3636 Cl      1  UNL1       -0.0822
     34 C          63.9317   83.3131   11.0376 C.ar    1  UNL1        0.0128
     35 C          63.1753   84.3012   10.2001 C.ar    1  UNL1        0.0208
@<TRIPOS>BOND
     1    11    12    2
     2    12    10    1
     3    10     7    1
     4     1     7    1
     5     1     2    1
     6     2     3    1
     7     3     4    1
     8     4     5    1
     9     5    23    1
    10    23    24    1
    11    24    25    1
    12     5     6    1
    13     6    26    1
    14    26    27    2
    15    26    28    2
    16    26    29    1
    17    29    30   ar
    18    30    31   ar
    19    31    32   ar
    20    32    33    1
    21    32    34   ar
    22    34    35   ar
    23     7     8    1
    24     8     9    1
    25    12    13   am
    26    13    14    1
    27    14    15    1
    28    15    16    1
    29    16    19    1
    30    19    20    1
    31    20    21    1
    32    16    17    1
    33    17    18    1
    34     9     7    1
    35    18    13    1
    36     6     1    1
    37    35    29   ar
    38    25    23    1
    39    21    22    1
@<TRIPOS>MOLECULE
*****
 35 39 0 0 0
SMALL
GASTEIGER

@<TRIPOS>ATOM
      1 C          62.1378   86.8866   10.5153 C.3     1  UNL1        0.1160
      2 C          62.1057   86.7498    9.0220 C.3     1  UNL1        0.0213
      3 C          62.7070   85.5421    8.3665 C.3     1  UNL1        0.0030
      4 C          63.3404   84.4712    9.2043 C.3     1  UNL1        0.0178
      5 C          63.3725   84.6080   10.6977 C.3     1  UNL1        0.0796
      6 N          62.7712   85.8157   11.3532 N.3     1  UNL1       -0.1549
      7 C          61.5364   88.0944   11.1709 C.3     1  UNL1        0.1525
      8 C          60.5055   89.0825   11.6301 C.3     1  UNL1        0.0452
      9 C          60.0905   87.8814   10.8330 C.3     1  UNL1        0.0452
     10 O          62.7734   88.7267   11.7365 O.3     1  UNL1       -0.4404
     11 O          62.8912   90.4443    9.7907 O.2     1  UNL1       -0.2262
     12 C          63.2721   90.0276   11.1804 C.2     1  UNL1        0.4048
     13 N          64.1516   90.9116   12.0140 N.am    1  UNL1       -0.2432
     14 C          64.5325   90.4948   13.4037 C.3     1  UNL1        0.1141
     15 C          65.4120   91.3789   14.2373 C.3     1  UNL1        0.0941
     16 N          65.9106   92.6797   13.6813 N.3     1  UNL1       -0.2676
     17 C          65.5298   93.0965   12.2916 C.3     1  UNL1        0.0941
     18 C          64.6502   92.2125   11.4579 C.3     1  UNL1        0.1141
     19 C          66.7902   93.5638   14.5149 C.3     1  UNL1        0.1043
     20 C          68.0396   93.0102   15.1333 C.3     1  UNL1        0.1544
     21 O          69.0712   92.3439   14.2718 O.3     1  UNL1       -0.3805
     22 H          68.7015   91.5296   13.8960 H       1  UNL1        0.2105
     23 C          64.0060   83.5372   11.5355 C.3     1  UNL1        0.0164
     24 C          64.7495   83.1241   12.7710 C.3     1  UNL1        0.0014
     25 C          64.3595   82.0955   11.7512 C.3     1  UNL1        0.0014
     26 S          62.8032   85.9526   12.8466 S.O2    1  UNL1        0.0633
     27 O          61.5753   85.0977   12.9513 O.2     1  UNL1       -0.1528
     28 O          63.8826   86.7291   13.0804 O.2     1  UNL1       -0.1528
     29 C          62.8353   86.0895   14.3400 C.ar    1  UNL1        0.1223
     30 C          63.4573   87.3009   14.9690 C.ar    1  UNL1        0.0208
     31 C          63.4893   87.4377   16.4624 C.ar    1  UNL1        0.0128
     32 C          62.8993   86.3632   17.3268 C.ar    1  UNL1        0.0578
     33 CL         62.9313   86.5000   18.8202 Cl      1  UNL1       -0.0822
     34 C          62.2772   85.1518   16.6979 C.ar    1  UNL1        0.0128
     35 C          62.2452   85.0149   15.2045 C.ar    1  UNL1        0.0208
@<TRIPOS>BOND
     1    11    12    2
     2    12    10    1
     3    10     7    1
     4     1     7    1
     5     1     2    1
     6     2     3    1
     7     3     4    1
     8     4     5    1
     9     5    23    1
    10    23    24    1
    11    24    25    1
    12     5     6    1
    13     6    26    1
    14    26    27    2
    15    26    28    2
    16    26    29    1
    17    29    30   ar
    18    30    31   ar
    19    31    32   ar
    20    32    33    1
    21    32    34   ar
    22    34    35   ar
    23     7     8    1
    24     8     9    1
    25    12    13   am
    26    13    14    1
    27    14    15    1
    28    15    16    1
    29    16    19    1
    30    19    20    1
    31    20    21    1
    32    16    17    1
    33    17    18    1
    34     9     7    1
    35    18    13    1
    36     6     1    1
    37    35    29   ar
    38    25    23    1
    39    21    22    1
@<TRIPOS>MOLECULE
*****
 35 39 0 0 0
SMALL
GASTEIGER

@<TRIPOS>ATOM
      1 C          64.3267   90.2236   14.9797 C.3     1  UNL1        0.1160
      2 C          65.3268   90.9224   15.8522 C.3     1  UNL1        0.0213
      3 C          66.1894   92.0092   15.2824 C.3     1  UNL1        0.0030
      4 C          66.0519   92.3972   13.8400 C.3     1  UNL1        0.0178
      5 C          65.0518   91.6984   12.9674 C.3     1  UNL1        0.0796
      6 N          64.1892   90.6116   13.5372 N.3     1  UNL1       -0.1549
      7 C          63.4640   89.1368   15.5495 C.3     1  UNL1        0.1525
      8 C          62.3718   88.4674   16.3299 C.3     1  UNL1        0.0452
      9 C          62.5033   89.9615   16.3538 C.3     1  UNL1        0.0452
     10 O          64.1252   87.9347   14.9431 O.3     1  UNL1       -0.4404
     11 O          63.9253   86.3787   17.0141 O.2     1  UNL1       -0.2262
     12 C          63.8878   86.5736   15.5273 C.2     1  UNL1        0.4048
     13 N          63.6130   85.4076   14.6247 N.am    1  UNL1       -0.2432
     14 C          63.5755   85.6025   13.1379 C.3     1  UNL1        0.1141
     15 C          63.3007   84.4363   12.2353 C.3     1  UNL1        0.0941
     16 N          63.0633   83.0754   12.8194 N.3     1  UNL1       -0.2676
     17 C          63.1008   82.8804   14.3062 C.3     1  UNL1        0.0941
     18 C          63.3756   84.0465   15.2089 C.3     1  UNL1        0.1141
     19 C          62.7885   81.9092   11.9168 C.3     1  UNL1        0.1043
     20 C          63.4236   81.8454   10.5595 C.3     1  UNL1        0.1544
     21 O          64.8172   82.3628   10.3584 O.3     1  UNL1       -0.3805
     22 H          64.8291   83.3226   10.4982 H       1  UNL1        0.2105
     23 C          64.9143   92.0863   11.5250 C.3     1  UNL1        0.0164
     24 C          64.1990   91.9720   10.2115 C.3     1  UNL1        0.0014
     25 C          65.3916   92.8727   10.3401 C.3     1  UNL1        0.0014
     26 S          63.1891   89.9127   12.6646 S.O2    1  UNL1        0.0633
     27 O          62.2241   91.0435   12.8651 O.2     1  UNL1       -0.1528
     28 O          63.8140   88.7731   12.2996 O.2     1  UNL1       -0.1528
     29 C          62.1889   89.2139   11.7921 C.ar    1  UNL1        0.1223
     30 C          60.7316   89.5515   11.9029 C.ar    1  UNL1        0.0208
     31 C          59.7314   88.8526   11.0303 C.ar    1  UNL1        0.0128
     32 C          60.1886   87.8163   10.0470 C.ar    1  UNL1        0.0578
     33 CL         59.1885   87.1175    9.1745 Cl      1  UNL1       -0.0822
     34 C          61.6459   87.4787    9.9362 C.ar    1  UNL1        0.0128
     35 C          62.6461   88.1775   10.8087 C.ar    1  UNL1        0.0208
@<TRIPOS>BOND
     1    11    12    2
     2    12    10    1
     3    10     7    1
     4     1     7    1
     5     1     2    1
     6     2     3    1
     7     3     4    1
     8     4     5    1
     9     5    23    1
    10    23    24    1
    11    24    25    1
    12     5     6    1
    13     6    26    1
    14    26    27    2
    15    26    28    2
    16    26    29    1
    17    29    30   ar
    18    30    31   ar
    19    31    32   ar
    20    32    33    1
    21    32    34   ar
    22    34    35   ar
    23     7     8    1
    24     8     9    1
    25    12    13   am
    26    13    14    1
    27    14    15    1
    28    15    16    1
    29    16    19    1
    30    19    20    1
    31    20    21    1
    32    16    17    1
    33    17    18    1
    34     9     7    1
    35    18    13    1
    36     6     1    1
    37    35    29   ar
    38    25    23    1
    39    21    22    1
@<TRIPOS>MOLECULE
*****
 35 39 0 0 0
SMALL
GASTEIGER

@<TRIPOS>ATOM
      1 C          63.3757   89.9628   13.5051 C.3     1  UNL1        0.1160
      2 C          62.2076   89.4235   12.7339 C.3     1  UNL1        0.0213
      3 C          61.9921   89.8413   11.3095 C.3     1  UNL1        0.0030
      4 C          62.9446   90.7984   10.6563 C.3     1  UNL1        0.0178
      5 C          64.1126   91.3377   11.4275 C.3     1  UNL1        0.0796
      6 N          64.3282   90.9199   12.8519 N.3     1  UNL1       -0.1549
      7 C          63.5913   89.5449   14.9295 C.3     1  UNL1        0.1525
      8 C          63.6257   89.6098   16.4277 C.3     1  UNL1        0.0452
      9 C          63.1443   90.7900   15.6368 C.3     1  UNL1        0.0452
     10 O          64.1132   88.1548   14.7170 O.3     1  UNL1       -0.4404
     11 O          63.2046   87.2028   16.9571 O.2     1  UNL1       -0.2262
     12 C          63.5498   87.0128   15.5098 C.2     1  UNL1        0.4048
     13 N          63.3316   85.6809   14.8554 N.am    1  UNL1       -0.2432
     14 C          63.6767   85.4909   13.4080 C.3     1  UNL1        0.1141
     15 C          63.4585   84.1589   12.7536 C.3     1  UNL1        0.0941
     16 N          62.8952   83.0171   13.5463 N.3     1  UNL1       -0.2676
     17 C          62.5500   83.2070   14.9936 C.3     1  UNL1        0.0941
     18 C          62.7682   84.5390   15.6482 C.3     1  UNL1        0.1141
     19 C          62.6769   81.6851   12.8918 C.3     1  UNL1        0.1043
     20 C          62.0260   80.5712   13.6570 C.3     1  UNL1        0.1544
     21 O          60.5814   80.6738   14.0478 O.3     1  UNL1       -0.3805
     22 H          60.4696   81.3960   14.6857 H       1  UNL1        0.2105
     23 C          65.0651   92.2949   10.7743 C.3     1  UNL1        0.0164
     24 C          65.3503   93.6440   10.1840 C.3     1  UNL1        0.0014
     25 C          66.4296   92.6035   10.2333 C.3     1  UNL1        0.0014
     26 S          65.4963   91.4592   13.6231 S.O2    1  UNL1        0.0633
     27 O          64.9783   92.8539   13.4323 O.2     1  UNL1       -0.1528
     28 O          66.2029   90.3586   13.9577 O.2     1  UNL1       -0.1528
     29 C          66.6643   91.9985   14.3944 C.ar    1  UNL1        0.1223
     30 C          66.4562   92.5812   15.7608 C.ar    1  UNL1        0.0208
     31 C          67.6243   93.1205   16.5320 C.ar    1  UNL1        0.0128
     32 C          69.0005   93.0772   15.9368 C.ar    1  UNL1        0.0578
     33 CL         70.1685   93.6165   16.7080 Cl      1  UNL1       -0.0822
     34 C          69.2086   92.4945   14.5703 C.ar    1  UNL1        0.0128
     35 C          68.0405   91.9552   13.7991 C.ar    1  UNL1        0.0208
@<TRIPOS>BOND
     1    11    12    2
     2    12    10    1
     3    10     7    1
     4     1     7    1
     5     1     2    1
     6     2     3    1
     7     3     4    1
     8     4     5    1
     9     5    23    1
    10    23    24    1
    11    24    25    1
    12     5     6    1
    13     6    26    1
    14    26    27    2
    15    26    28    2
    16    26    29    1
    17    29    30   ar
    18    30    31   ar
    19    31    32   ar
    20    32    33    1
    21    32    34   ar
    22    34    35   ar
    23     7     8    1
    24     8     9    1
    25    12    13   am
    26    13    14    1
    27    14    15    1
    28    15    16    1
    29    16    19    1
    30    19    20    1
    31    20    21    1
    32    16    17    1
    33    17    18    1
    34     9     7    1
    35    18    13    1
    36     6     1    1
    37    35    29   ar
    38    25    23    1
    39    21    22    1
@<TRIPOS>MOLECULE
*****
 35 39 0 0 0
SMALL
GASTEIGER

@<TRIPOS>ATOM
      1 C          60.5243   88.8935   10.4871 C.3     1  UNL1        0.1160
      2 C          59.8327   89.7087    9.4349 C.3     1  UNL1        0.0213
      3 C          59.9002   89.2892    7.9964 C.3     1  UNL1        0.0030
      4 C          60.6593   88.0545    7.6100 C.3     1  UNL1        0.0178
      5 C          61.3509   87.2393    8.6622 C.3     1  UNL1        0.0796
      6 N          61.2834   87.6588   10.1007 N.3     1  UNL1       -0.1549
      7 C          60.4568   89.3130   11.9257 C.3     1  UNL1        0.1525
      8 C          59.9136   89.5280   13.3073 C.3     1  UNL1        0.0452
      9 C          59.0635   88.8698   12.2612 C.3     1  UNL1        0.0452
     10 O          61.8266   89.9018   12.0898 O.3     1  UNL1       -0.4404
     11 O          61.7742   89.3659   14.6314 O.2     1  UNL1       -0.2262
     12 C          62.4269   90.0345   13.4580 C.2     1  UNL1        0.4048
     13 N          63.6798   90.8358   13.6528 N.am    1  UNL1       -0.2432
     14 C          64.3325   91.5044   12.4794 C.3     1  UNL1        0.1141
     15 C          65.5856   92.3057   12.6742 C.3     1  UNL1        0.0941
     16 N          66.1858   92.4384   14.0423 N.3     1  UNL1       -0.2676
     17 C          65.5332   91.7699   15.2158 C.3     1  UNL1        0.0941
     18 C          64.2802   90.9685   15.0210 C.3     1  UNL1        0.1141
     19 C          67.4389   93.2398   14.2371 C.3     1  UNL1        0.1043
     20 C          67.9019   93.5830   15.6219 C.3     1  UNL1        0.1544
     21 O          69.3212   94.0094   15.8541 O.3     1  UNL1       -0.3805
     22 H          69.9169   93.2681   15.6628 H       1  UNL1        0.2105
     23 C          62.1101   86.0046    8.2758 C.3     1  UNL1        0.0164
     24 C          63.1994   85.0105    8.5498 C.3     1  UNL1        0.0014
     25 C          62.3356   84.8603    7.3327 C.3     1  UNL1        0.0014
     26 S          61.9751   86.8436   11.1530 S.O2    1  UNL1        0.0633
     27 O          60.8532   85.8486   11.1194 O.2     1  UNL1       -0.1528
     28 O          63.1054   87.5351   11.4114 O.2     1  UNL1       -0.1528
     29 C          62.6666   86.0284   12.2052 C.ar    1  UNL1        0.1223
     30 C          63.4869   86.7077   13.2614 C.ar    1  UNL1        0.0208
     31 C          64.1785   85.8924   14.3137 C.ar    1  UNL1        0.0128
     32 C          64.0498   84.3980   14.3096 C.ar    1  UNL1        0.0578
     33 CL         64.7413   83.5828   15.3618 Cl      1  UNL1       -0.0822
     34 C          63.2295   83.7187   13.2533 C.ar    1  UNL1        0.0128
     35 C          62.5379   84.5339   12.2011 C.ar    1  UNL1        0.0208
@<TRIPOS>BOND
     1    11    12    2
     2    12    10    1
     3    10     7    1
     4     1     7    1
     5     1     2    1
     6     2     3    1
     7     3     4    1
     8     4     5    1
     9     5    23    1
    10    23    24    1
    11    24    25    1
    12     5     6    1
    13     6    26    1
    14    26    27    2
    15    26    28    2
    16    26    29    1
    17    29    30   ar
    18    30    31   ar
    19    31    32   ar
    20    32    33    1
    21    32    34   ar
    22    34    35   ar
    23     7     8    1
    24     8     9    1
    25    12    13   am
    26    13    14    1
    27    14    15    1
    28    15    16    1
    29    16    19    1
    30    19    20    1
    31    20    21    1
    32    16    17    1
    33    17    18    1
    34     9     7    1
    35    18    13    1
    36     6     1    1
    37    35    29   ar
    38    25    23    1
    39    21    22    1
@<TRIPOS>MOLECULE
*****
 35 39 0 0 0
SMALL
GASTEIGER

@<TRIPOS>ATOM
      1 C          65.5828   91.4362   15.1915 C.3     1  UNL1        0.1160
      2 C          66.7089   91.8577   16.0881 C.3     1  UNL1        0.0213
      3 C          67.9711   92.4119   15.4968 C.3     1  UNL1        0.0030
      4 C          68.1071   92.5446   14.0089 C.3     1  UNL1        0.0178
      5 C          66.9809   92.1231   13.1123 C.3     1  UNL1        0.0796
      6 N          65.7187   91.5688   13.7036 N.3     1  UNL1       -0.1549
      7 C          64.3205   90.8819   15.7828 C.3     1  UNL1        0.1525
      8 C          63.0151   90.8260   16.5195 C.3     1  UNL1        0.0452
      9 C          63.7577   92.1244   16.4069 C.3     1  UNL1        0.0452
     10 O          64.4450   89.4469   15.3641 O.3     1  UNL1       -0.4404
     11 O          63.2477   88.6808   17.5388 O.2     1  UNL1       -0.2262
     12 C          63.7870   88.3695   16.1742 C.2     1  UNL1        0.4048
     13 N          63.6684   86.9808   15.6197 N.am    1  UNL1       -0.2432
     14 C          64.2078   86.6695   14.2551 C.3     1  UNL1        0.1141
     15 C          64.0892   85.2808   13.7006 C.3     1  UNL1        0.0941
     16 N          63.4313   84.2034   14.5106 N.3     1  UNL1       -0.2676
     17 C          62.8919   84.5146   15.8752 C.3     1  UNL1        0.0941
     18 C          63.0105   85.9034   16.4298 C.3     1  UNL1        0.1141
     19 C          63.3127   82.8147   13.9561 C.3     1  UNL1        0.1043
     20 C          63.0827   82.6104   12.4880 C.3     1  UNL1        0.1544
     21 O          62.9608   81.2218   11.9340 O.3     1  UNL1       -0.3805
     22 H          63.8078   80.7592   12.0316 H       1  UNL1        0.2105
     23 C          67.1169   92.2557   11.6244 C.3     1  UNL1        0.0164
     24 C          66.6343   92.8199   10.3210 C.3     1  UNL1        0.0014
     25 C          67.8350   91.9214   10.3506 C.3     1  UNL1        0.0014
     26 S          64.5925   91.1473   12.8070 S.O2    1  UNL1        0.0633
     27 O          64.2398   92.5863   12.5734 O.2     1  UNL1       -0.1528
     28 O          64.6552   89.7987   12.8157 O.2     1  UNL1       -0.1528
     29 C          63.4662   90.7257   11.9104 C.ar    1  UNL1        0.1223
     30 C          62.3958   89.8123   12.4297 C.ar    1  UNL1        0.0208
     31 C          61.2695   89.3907   11.5330 C.ar    1  UNL1        0.0128
     32 C          61.2137   89.8827   10.1172 C.ar    1  UNL1        0.0578
     33 CL         60.0875   89.4612    9.2206 Cl      1  UNL1       -0.0822
     34 C          62.2842   90.7962    9.5978 C.ar    1  UNL1        0.0128
     35 C          63.4104   91.2177   10.4944 C.ar    1  UNL1        0.0208
@<TRIPOS>BOND
     1    11    12    2
     2    12    10    1
     3    10     7    1
     4     1     7    1
     5     1     2    1
     6     2     3    1
     7     3     4    1
     8     4     5    1
     9     5    23    1
    10    23    24    1
    11    24    25    1
    12     5     6    1
    13     6    26    1
    14    26    27    2
    15    26    28    2
    16    26    29    1
    17    29    30   ar
    18    30    31   ar
    19    31    32   ar
    20    32    33    1
    21    32    34   ar
    22    34    35   ar
    23     7     8    1
    24     8     9    1
    25    12    13   am
    26    13    14    1
    27    14    15    1
    28    15    16    1
    29    16    19    1
    30    19    20    1
    31    20    21    1
    32    16    17    1
    33    17    18    1
    34     9     7    1
    35    18    13    1
    36     6     1    1
    37    35    29   ar
    38    25    23    1
    39    21    22    1
