@<TRIPOS>MOLECULE
*****
 32 36 0 0 0
SMALL
GASTEIGER

@<TRIPOS>ATOM
      1 C          62.1299   89.7935   12.9725 C.3     1  UNL1        0.1211
      2 C          61.7974   89.2578   14.3336 C.3     1  UNL1        0.0804
      3 N          62.6569   89.6139   15.5102 N.3     1  UNL1       -0.2969
      4 C          63.8489   90.5056   15.3257 C.3     1  UNL1        0.0714
      5 C          64.1813   91.0413   13.9647 C.3     1  UNL1        0.0490
      6 C          63.3218   90.6852   12.7881 C.3     1  UNL1        0.1224
      7 O          62.5590   90.4172   11.5245 O.3     1  UNL1       -0.3492
      8 C          63.2412   91.1493   10.4071 C.3     1  UNL1        0.1687
      9 C          64.4256   91.8698   10.9799 C.ar    1  UNL1        0.0079
     10 C          65.4651   92.7499   10.3518 C.ar    1  UNL1        0.0299
     11 C          66.5546   93.3432   11.1950 C.ar    1  UNL1        0.1671
     12 F          67.5942   94.2233   10.5669 F       1  UNL1       -0.2018
     13 C          66.6044   93.0564   12.6665 C.ar    1  UNL1        0.1671
     14 F          67.6938   93.6497   13.5098 F       1  UNL1       -0.2018
     15 C          65.5649   92.1762   13.2948 C.ar    1  UNL1        0.0297
     16 C          64.4754   91.5829   12.4515 C.ar    1  UNL1        0.0033
     17 H          63.0029   88.7364   15.8983 H       1  UNL1        0.1233
     18 O          60.3787   90.4731   11.1776 O.2     1  UNL1       -0.2747
     19 C          61.2703   89.4374   11.7959 C.2     1  UNL1        0.2294
     20 N          61.3025   88.0456   11.2375 N.am    1  UNL1       -0.2769
     21 C          62.1942   87.0098   11.8557 C.3     1  UNL1        0.0758
     22 C          63.4320   86.6528   12.6240 C.3     1  UNL1        0.0215
     23 C          62.5008   85.5730   12.1583 C.3     1  UNL1        0.0215
     24 C          60.4430   87.6895   10.0608 C.3     1  UNL1        0.1209
     25 C          60.9706   86.7734    8.9966 C.ar    1  UNL1        0.0083
     26 C          62.4028   86.3292    9.0318 C.ar    1  UNL1       -0.0009
     27 C          62.9303   85.4132    7.9676 C.ar    1  UNL1        0.0112
     28 C          62.0256   84.9414    6.8681 C.ar    1  UNL1        0.0585
     29 CL         62.5532   84.0254    5.8039 Cl      1  UNL1       -0.0822
     30 C          60.5933   85.3856    6.8328 C.ar    1  UNL1        0.0225
     31 C          60.0658   86.3017    7.8971 C.ar    1  UNL1        0.0561
     32 CL         58.6335   86.7459    7.8618 Cl      1  UNL1       -0.0825
@<TRIPOS>BOND
     1    18    19    2
     2     1    19    1
     3     1     2    1
     4     2     3    1
     5     3     4    1
     6     4     5    1
     7     6     5    1
     8     6     7    1
     9     7     8    1
    10     8     9    1
    11     9    10   ar
    12    10    11   ar
    13    11    12    1
    14    11    13   ar
    15    13    14    1
    16    13    15   ar
    17    15    16   ar
    18    19    20   am
    19    20    24    1
    20    24    25    1
    21    25    26   ar
    22    26    27   ar
    23    27    28   ar
    24    28    29    1
    25    28    30   ar
    26    30    31   ar
    27    31    32    1
    28    20    21    1
    29    21    22    1
    30    22    23    1
    31     6     1    1
    32    16     9   ar
    33    31    25   ar
    34    23    21    1
    35    16     6    1
    36     3    17    1
@<TRIPOS>MOLECULE
*****
 32 36 0 0 0
SMALL
GASTEIGER

@<TRIPOS>ATOM
      1 C          62.7713   86.2751   10.5831 C.3     1  UNL1        0.1211
      2 C          62.8680   86.5506    9.1118 C.3     1  UNL1        0.0804
      3 N          62.9637   85.4119    8.1402 N.3     1  UNL1       -0.2969
      4 C          62.9627   83.9975    8.6399 C.3     1  UNL1        0.0714
      5 C          62.8660   83.7220   10.1112 C.3     1  UNL1        0.0490
      6 C          62.7703   84.8607   11.0827 C.3     1  UNL1        0.1224
      7 O          62.6692   85.8913   12.1681 O.3     1  UNL1       -0.3492
      8 C          62.5941   85.1737   13.4832 C.3     1  UNL1        0.1687
      9 C          62.6488   83.6996   13.2107 C.ar    1  UNL1        0.0079
     10 C          62.6134   82.5086   14.1217 C.ar    1  UNL1        0.0299
     11 C          62.6870   81.1240   13.5493 C.ar    1  UNL1        0.1671
     12 F          62.6517   79.9330   14.4603 F       1  UNL1       -0.2018
     13 C          62.7959   80.9306   12.0658 C.ar    1  UNL1        0.1671
     14 F          62.8695   79.5461   11.4934 F       1  UNL1       -0.2018
     15 C          62.8312   82.1217   11.1547 C.ar    1  UNL1        0.0297
     16 C          62.7576   83.5062   11.7271 C.ar    1  UNL1        0.0033
     17 H          63.8322   85.5401    7.6209 H       1  UNL1        0.1233
     18 O          63.5982   87.4713   12.7361 O.2     1  UNL1       -0.2747
     19 C          62.6756   87.4138   11.5548 C.2     1  UNL1        0.2294
     20 N          61.6573   88.4951   11.3450 N.am    1  UNL1       -0.2769
     21 C          60.7348   88.4376   10.1636 C.3     1  UNL1        0.0758
     22 C          60.1843   89.0581    8.9139 C.3     1  UNL1        0.0215
     23 C          59.6874   87.7174    9.3672 C.3     1  UNL1        0.0215
     24 C          61.5616   89.6338   12.3166 C.3     1  UNL1        0.1209
     25 C          62.8016   90.3625   12.7427 C.ar    1  UNL1        0.0083
     26 C          63.2661   90.2832   14.1668 C.ar    1  UNL1       -0.0009
     27 C          64.5061   91.0119   14.5928 C.ar    1  UNL1        0.0112
     28 C          65.2816   91.8197   13.5949 C.ar    1  UNL1        0.0585
     29 CL         66.5215   92.5483   14.0210 Cl      1  UNL1       -0.0822
     30 C          64.8171   91.8990   12.1708 C.ar    1  UNL1        0.0225
     31 C          63.5771   91.1704   11.7447 C.ar    1  UNL1        0.0561
     32 CL         63.1126   91.2496   10.3207 Cl      1  UNL1       -0.0825
@<TRIPOS>BOND
     1    18    19    2
     2     1    19    1
     3     1     2    1
     4     2     3    1
     5     3     4    1
     6     4     5    1
     7     6     5    1
     8     6     7    1
     9     7     8    1
    10     8     9    1
    11     9    10   ar
    12    10    11   ar
    13    11    12    1
    14    11    13   ar
    15    13    14    1
    16    13    15   ar
    17    15    16   ar
    18    19    20   am
    19    20    24    1
    20    24    25    1
    21    25    26   ar
    22    26    27   ar
    23    27    28   ar
    24    28    29    1
    25    28    30   ar
    26    30    31   ar
    27    31    32    1
    28    20    21    1
    29    21    22    1
    30    22    23    1
    31     6     1    1
    32    16     9   ar
    33    31    25   ar
    34    23    21    1
    35    16     6    1
    36     3    17    1
@<TRIPOS>MOLECULE
*****
 32 36 0 0 0
SMALL
GASTEIGER

@<TRIPOS>ATOM
      1 C          59.7344   95.6529   -3.3815 C.3     1  UNL1        0.1211
      2 C          60.1719   96.5244   -4.5212 C.3     1  UNL1        0.0804
      3 N          59.6318   96.2836   -5.8997 N.3     1  UNL1       -0.2969
      4 C          58.6543   95.1711   -6.1385 C.3     1  UNL1        0.0714
      5 C          58.2169   94.2996   -4.9988 C.3     1  UNL1        0.0490
      6 C          58.7570   94.5404   -3.6203 C.3     1  UNL1        0.1224
      7 O          59.2087   94.6602   -2.1949 O.3     1  UNL1       -0.3492
      8 C          58.5219   93.5899   -1.3995 C.3     1  UNL1        0.1687
      9 C          57.6457   92.8085   -2.3332 C.ar    1  UNL1        0.0079
     10 C          56.7344   91.6381   -2.1110 C.ar    1  UNL1        0.0299
     11 C          55.9683   91.0550   -3.2614 C.ar    1  UNL1        0.1671
     12 F          55.0570   89.8845   -3.0392 F       1  UNL1       -0.2018
     13 C          56.1136   91.6425   -4.6339 C.ar    1  UNL1        0.1671
     14 F          55.3476   91.0594   -5.7842 F       1  UNL1       -0.2018
     15 C          57.0250   92.8130   -4.8561 C.ar    1  UNL1        0.0297
     16 C          57.7910   93.3960   -3.7058 C.ar    1  UNL1        0.0033
     17 H          60.4344   96.1049   -6.5033 H       1  UNL1        0.1233
     18 O          59.4940   96.7220   -1.0258 O.2     1  UNL1       -0.2747
     19 C          60.2745   95.8937   -2.0029 C.2     1  UNL1        0.2294
     20 N          61.5950   95.3062   -1.6015 N.am    1  UNL1       -0.2769
     21 C          62.3754   94.4779   -2.5787 C.3     1  UNL1        0.0758
     22 C          63.2394   94.3815   -3.8011 C.3     1  UNL1        0.0215
     23 C          62.8632   93.1396   -3.0489 C.3     1  UNL1        0.0215
     24 C          62.1350   95.5470   -0.2230 C.3     1  UNL1        0.1209
     25 C          62.4820   94.3853    0.6601 C.ar    1  UNL1        0.0083
     26 C          61.4083   93.6951    1.4479 C.ar    1  UNL1       -0.0009
     27 C          61.7553   92.5333    2.3310 C.ar    1  UNL1        0.0112
     28 C          63.1760   92.0617    2.4263 C.ar    1  UNL1        0.0585
     29 CL         63.5230   90.8999    3.3094 Cl      1  UNL1       -0.0822
     30 C          64.2498   92.7519    1.6385 C.ar    1  UNL1        0.0225
     31 C          63.9028   93.9137    0.7553 C.ar    1  UNL1        0.0561
     32 CL         64.9766   94.6038   -0.0325 Cl      1  UNL1       -0.0825
@<TRIPOS>BOND
     1    18    19    2
     2     1    19    1
     3     1     2    1
     4     2     3    1
     5     3     4    1
     6     4     5    1
     7     6     5    1
     8     6     7    1
     9     7     8    1
    10     8     9    1
    11     9    10   ar
    12    10    11   ar
    13    11    12    1
    14    11    13   ar
    15    13    14    1
    16    13    15   ar
    17    15    16   ar
    18    19    20   am
    19    20    24    1
    20    24    25    1
    21    25    26   ar
    22    26    27   ar
    23    27    28   ar
    24    28    29    1
    25    28    30   ar
    26    30    31   ar
    27    31    32    1
    28    20    21    1
    29    21    22    1
    30    22    23    1
    31     6     1    1
    32    16     9   ar
    33    31    25   ar
    34    23    21    1
    35    16     6    1
    36     3    17    1
@<TRIPOS>MOLECULE
*****
 32 36 0 0 0
SMALL
GASTEIGER

@<TRIPOS>ATOM
      1 C          63.2769   88.1745   12.5898 C.3     1  UNL1        0.1211
      2 C          63.8400   87.0382   13.3908 C.3     1  UNL1        0.0804
      3 N          63.4979   85.6234   13.0285 N.3     1  UNL1       -0.2969
      4 C          62.5926   85.3449   11.8654 C.3     1  UNL1        0.0714
      5 C          62.0294   86.4813   11.0645 C.3     1  UNL1        0.0490
      6 C          62.3716   87.8961   11.4267 C.3     1  UNL1        0.1224
      7 O          62.6232   89.3550   11.6684 O.3     1  UNL1       -0.3492
      8 C          61.8651   90.1337   10.6345 C.3     1  UNL1        0.1687
      9 C          61.1448   89.1561    9.7538 C.ar    1  UNL1        0.0079
     10 C          60.2445   89.3464    8.5694 C.ar    1  UNL1        0.0299
     11 C          59.6570   88.1539    7.8744 C.ar    1  UNL1        0.1671
     12 F          58.7566   88.3443    6.6900 F       1  UNL1       -0.2018
     13 C          59.9700   86.7711    8.3641 C.ar    1  UNL1        0.1671
     14 F          59.3827   85.5786    7.6692 F       1  UNL1       -0.2018
     15 C          60.8705   86.5806    9.5486 C.ar    1  UNL1        0.0297
     16 C          61.4579   87.7732   10.2434 C.ar    1  UNL1        0.0033
     17 H          63.0587   85.2072   13.8497 H       1  UNL1        0.1233
     18 O          63.8707   90.6000   11.8726 O.2     1  UNL1       -0.2747
     19 C          63.6191   89.5894   12.9520 C.2     1  UNL1        0.2294
     20 N          63.7096   89.9936   14.3937 N.am    1  UNL1       -0.2769
     21 C          63.4579   88.9829   15.4732 C.3     1  UNL1        0.0758
     22 C          62.8447   88.6162   16.7921 C.3     1  UNL1        0.0215
     23 C          63.6353   87.5990   16.0240 C.3     1  UNL1        0.0215
     24 C          64.0517   91.4084   14.7559 C.3     1  UNL1        0.1209
     25 C          65.4875   91.8258   14.8750 C.ar    1  UNL1        0.0083
     26 C          66.4296   91.6076   13.7283 C.ar    1  UNL1       -0.0009
     27 C          67.8654   92.0251   13.8474 C.ar    1  UNL1        0.0112
     28 C          68.3591   92.6608   15.1131 C.ar    1  UNL1        0.0585
     29 CL         69.7949   93.0783   15.2321 Cl      1  UNL1       -0.0822
     30 C          67.4171   92.8790   16.2598 C.ar    1  UNL1        0.0225
     31 C          65.9813   92.4616   16.1408 C.ar    1  UNL1        0.0561
     32 CL         65.0392   92.6798   17.2874 Cl      1  UNL1       -0.0825
@<TRIPOS>BOND
     1    18    19    2
     2     1    19    1
     3     1     2    1
     4     2     3    1
     5     3     4    1
     6     4     5    1
     7     6     5    1
     8     6     7    1
     9     7     8    1
    10     8     9    1
    11     9    10   ar
    12    10    11   ar
    13    11    12    1
    14    11    13   ar
    15    13    14    1
    16    13    15   ar
    17    15    16   ar
    18    19    20   am
    19    20    24    1
    20    24    25    1
    21    25    26   ar
    22    26    27   ar
    23    27    28   ar
    24    28    29    1
    25    28    30   ar
    26    30    31   ar
    27    31    32    1
    28    20    21    1
    29    21    22    1
    30    22    23    1
    31     6     1    1
    32    16     9   ar
    33    31    25   ar
    34    23    21    1
    35    16     6    1
    36     3    17    1
@<TRIPOS>MOLECULE
*****
 32 36 0 0 0
SMALL
GASTEIGER

@<TRIPOS>ATOM
      1 C          62.3106   89.0674   12.0357 C.3     1  UNL1        0.1211
      2 C          61.5123   89.7143   10.9429 C.3     1  UNL1        0.0804
      3 N          61.0450   88.9001    9.7730 N.3     1  UNL1       -0.2969
      4 C          61.3760   87.4391    9.6959 C.3     1  UNL1        0.0714
      5 C          62.1743   86.7923   10.7887 C.3     1  UNL1        0.0490
      6 C          62.6416   87.6064   11.9586 C.3     1  UNL1        0.1224
      7 O          63.1746   88.2890   13.1835 O.3     1  UNL1       -0.3492
      8 C          63.9095   87.2679   14.0004 C.3     1  UNL1        0.1687
      9 C          63.8308   85.9543   13.2804 C.ar    1  UNL1        0.0079
     10 C          64.3714   84.5947   13.6108 C.ar    1  UNL1        0.0299
     11 C          64.1284   83.4443   12.6794 C.ar    1  UNL1        0.1671
     12 F          64.6690   82.0847   13.0097 F       1  UNL1       -0.2018
     13 C          63.3448   83.6535   11.4176 C.ar    1  UNL1        0.1671
     14 F          63.1018   82.5032   10.4861 F       1  UNL1       -0.2018
     15 C          62.8042   85.0132   11.0871 C.ar    1  UNL1        0.0297
     16 C          63.0472   86.1635   12.0185 C.ar    1  UNL1        0.0033
     17 H          61.4353   89.3349    8.9370 H       1  UNL1        0.1233
     18 O          62.3843   89.4879   14.5985 O.2     1  UNL1       -0.2747
     19 C          62.7780   89.8816   13.2057 C.2     1  UNL1        0.2294
     20 N          63.6390   91.0895   12.9827 N.am    1  UNL1       -0.2769
     21 C          64.0326   91.4832   11.5898 C.3     1  UNL1        0.0758
     22 C          65.0062   92.1276   10.6482 C.3     1  UNL1        0.0215
     23 C          63.7408   91.5206   10.1190 C.3     1  UNL1        0.0215
     24 C          64.1063   91.9037   14.1526 C.3     1  UNL1        0.1209
     25 C          65.5743   92.0717   14.4109 C.ar    1  UNL1        0.0083
     26 C          66.5582   91.8882   13.2936 C.ar    1  UNL1       -0.0009
     27 C          68.0262   92.0562   13.5519 C.ar    1  UNL1        0.0112
     28 C          68.5104   92.4077   14.9274 C.ar    1  UNL1        0.0585
     29 CL         69.9784   92.5757   15.1856 Cl      1  UNL1       -0.0822
     30 C          67.5265   92.5913   16.0447 C.ar    1  UNL1        0.0225
     31 C          66.0585   92.4232   15.7864 C.ar    1  UNL1        0.0561
     32 CL         65.0746   92.6068   16.9037 Cl      1  UNL1       -0.0825
@<TRIPOS>BOND
     1    18    19    2
     2     1    19    1
     3     1     2    1
     4     2     3    1
     5     3     4    1
     6     4     5    1
     7     6     5    1
     8     6     7    1
     9     7     8    1
    10     8     9    1
    11     9    10   ar
    12    10    11   ar
    13    11    12    1
    14    11    13   ar
    15    13    14    1
    16    13    15   ar
    17    15    16   ar
    18    19    20   am
    19    20    24    1
    20    24    25    1
    21    25    26   ar
    22    26    27   ar
    23    27    28   ar
    24    28    29    1
    25    28    30   ar
    26    30    31   ar
    27    31    32    1
    28    20    21    1
    29    21    22    1
    30    22    23    1
    31     6     1    1
    32    16     9   ar
    33    31    25   ar
    34    23    21    1
    35    16     6    1
    36     3    17    1
@<TRIPOS>MOLECULE
*****
 32 36 0 0 0
SMALL
GASTEIGER

@<TRIPOS>ATOM
      1 C          46.5340   75.3315   18.1121 C.3     1  UNL1        0.1211
      2 C          47.6927   74.7129   18.8364 C.3     1  UNL1        0.0804
      3 N          48.5905   75.5665   19.6822 N.3     1  UNL1       -0.2969
      4 C          48.3296   77.0386   19.8036 C.3     1  UNL1        0.0714
      5 C          47.1709   77.6572   19.0793 C.3     1  UNL1        0.0490
      6 C          46.2731   76.8037   18.2335 C.3     1  UNL1        0.1224
      7 O          45.2944   76.0810   17.3559 O.3     1  UNL1       -0.3492
      8 C          44.3061   77.0842   16.8396 C.3     1  UNL1        0.1687
      9 C          44.6738   78.4270   17.3980 C.ar    1  UNL1        0.0079
     10 C          44.0588   79.7851   17.2334 C.ar    1  UNL1        0.0299
     11 C          44.6594   80.9699   17.9302 C.ar    1  UNL1        0.1671
     12 F          44.0444   82.3280   17.7656 F       1  UNL1       -0.2018
     13 C          45.8750   80.7965   18.7916 C.ar    1  UNL1        0.1671
     14 F          46.4757   81.9813   19.4885 F       1  UNL1       -0.2018
     15 C          46.4901   79.4383   18.9563 C.ar    1  UNL1        0.0297
     16 C          45.8895   78.2536   18.2595 C.ar    1  UNL1        0.0033
     17 H          49.5333   75.4645   19.3065 H       1  UNL1        0.1233
     18 O          45.7853   74.4820   15.7737 O.2     1  UNL1       -0.2747
     19 C          45.6361   74.4780   17.2663 C.2     1  UNL1        0.2294
     20 N          44.5890   73.6205   17.9130 N.am    1  UNL1       -0.2769
     21 C          44.4399   73.6165   19.4057 C.3     1  UNL1        0.0758
     22 C          44.2760   74.3623   20.6967 C.3     1  UNL1        0.0215
     23 C          44.3453   72.8639   20.6997 C.3     1  UNL1        0.0215
     24 C          43.6912   72.7669   17.0673 C.3     1  UNL1        0.1209
     25 C          44.2814   71.8366   16.0495 C.ar    1  UNL1        0.0083
     26 C          43.6752   71.7400   14.6809 C.ar    1  UNL1       -0.0009
     27 C          44.2654   70.8096   13.6630 C.ar    1  UNL1        0.0112
     28 C          45.4619   69.9758   14.0138 C.ar    1  UNL1        0.0585
     29 CL         46.0521   69.0454   12.9959 Cl      1  UNL1       -0.0822
     30 C          46.0682   70.0723   15.3824 C.ar    1  UNL1        0.0225
     31 C          45.4780   71.0027   16.4003 C.ar    1  UNL1        0.0561
     32 CL         46.0842   71.0992   17.7689 Cl      1  UNL1       -0.0825
@<TRIPOS>BOND
     1    18    19    2
     2     1    19    1
     3     1     2    1
     4     2     3    1
     5     3     4    1
     6     4     5    1
     7     6     5    1
     8     6     7    1
     9     7     8    1
    10     8     9    1
    11     9    10   ar
    12    10    11   ar
    13    11    12    1
    14    11    13   ar
    15    13    14    1
    16    13    15   ar
    17    15    16   ar
    18    19    20   am
    19    20    24    1
    20    24    25    1
    21    25    26   ar
    22    26    27   ar
    23    27    28   ar
    24    28    29    1
    25    28    30   ar
    26    30    31   ar
    27    31    32    1
    28    20    21    1
    29    21    22    1
    30    22    23    1
    31     6     1    1
    32    16     9   ar
    33    31    25   ar
    34    23    21    1
    35    16     6    1
    36     3    17    1
@<TRIPOS>MOLECULE
*****
 32 36 0 0 0
SMALL
GASTEIGER

@<TRIPOS>ATOM
      1 C          61.9156   88.2324   10.0253 C.3     1  UNL1        0.1211
      2 C          61.0730   88.2839    8.7854 C.3     1  UNL1        0.0804
      3 N          60.4559   87.0279    8.2453 N.3     1  UNL1       -0.2969
      4 C          60.6813   85.7205    8.9451 C.3     1  UNL1        0.0714
      5 C          61.5239   85.6690   10.1850 C.3     1  UNL1        0.0490
      6 C          62.1410   86.9250   10.7251 C.3     1  UNL1        0.1224
      7 O          62.8193   88.0921   11.3793 O.3     1  UNL1       -0.3492
      8 C          63.5508   87.5858   12.5871 C.3     1  UNL1        0.1687
      9 C          63.3246   86.1058   12.6793 C.ar    1  UNL1        0.0079
     10 C          63.7995   85.0773   13.6624 C.ar    1  UNL1        0.0299
     11 C          63.4031   83.6403   13.4949 C.ar    1  UNL1        0.1671
     12 F          63.8779   82.6118   14.4780 F       1  UNL1       -0.2018
     13 C          62.5319   83.2319   12.3441 C.ar    1  UNL1        0.1671
     14 F          62.1355   81.7950   12.1765 F       1  UNL1       -0.2018
     15 C          62.0570   84.2604   11.3609 C.ar    1  UNL1        0.0297
     16 C          62.4533   85.6974   11.5285 C.ar    1  UNL1        0.0033
     17 H          60.8025   86.9156    7.2926 H       1  UNL1        0.1233
     18 O          63.9252   89.8733   10.1621 O.2     1  UNL1       -0.2747
     19 C          62.5327   89.4884   10.5654 C.2     1  UNL1        0.2294
     20 N          61.7573   90.3594   11.5088 N.am    1  UNL1       -0.2769
     21 C          60.3647   89.9744   11.9121 C.3     1  UNL1        0.0758
     22 C          58.8957   90.2741   11.9572 C.3     1  UNL1        0.0215
     23 C          59.4218   89.0080   12.5656 C.3     1  UNL1        0.0215
     24 C          62.3744   91.6154   12.0489 C.3     1  UNL1        0.1209
     25 C          63.6675   91.5500   12.8062 C.ar    1  UNL1        0.0083
     26 C          63.7326   90.8258   14.1182 C.ar    1  UNL1       -0.0009
     27 C          65.0257   90.7605   14.8755 C.ar    1  UNL1        0.0112
     28 C          66.2538   91.4194   14.3209 C.ar    1  UNL1        0.0585
     29 CL         67.5469   91.3541   15.0782 Cl      1  UNL1       -0.0822
     30 C          66.1888   92.1437   13.0089 C.ar    1  UNL1        0.0225
     31 C          64.8956   92.2090   12.2516 C.ar    1  UNL1        0.0561
     32 CL         64.8306   92.9332   10.9396 Cl      1  UNL1       -0.0825
@<TRIPOS>BOND
     1    18    19    2
     2     1    19    1
     3     1     2    1
     4     2     3    1
     5     3     4    1
     6     4     5    1
     7     6     5    1
     8     6     7    1
     9     7     8    1
    10     8     9    1
    11     9    10   ar
    12    10    11   ar
    13    11    12    1
    14    11    13   ar
    15    13    14    1
    16    13    15   ar
    17    15    16   ar
    18    19    20   am
    19    20    24    1
    20    24    25    1
    21    25    26   ar
    22    26    27   ar
    23    27    28   ar
    24    28    29    1
    25    28    30   ar
    26    30    31   ar
    27    31    32    1
    28    20    21    1
    29    21    22    1
    30    22    23    1
    31     6     1    1
    32    16     9   ar
    33    31    25   ar
    34    23    21    1
    35    16     6    1
    36     3    17    1
@<TRIPOS>MOLECULE
*****
 32 36 0 0 0
SMALL
GASTEIGER

@<TRIPOS>ATOM
      1 C          61.5306   89.8492   12.0061 C.3     1  UNL1        0.1211
      2 C          60.6452   90.9346   11.4695 C.3     1  UNL1        0.0804
      3 N          59.9961   90.7774   10.1264 N.3     1  UNL1       -0.2969
      4 C          60.2322   89.5348    9.3201 C.3     1  UNL1        0.0714
      5 C          61.1175   88.4494    9.8567 C.3     1  UNL1        0.0490
      6 C          61.7667   88.6066   11.1998 C.3     1  UNL1        0.1224
      7 O          62.4801   88.6223   12.5192 O.3     1  UNL1       -0.3492
      8 C          63.2483   87.3403   12.6462 C.3     1  UNL1        0.1687
      9 C          63.0099   86.5321   11.4052 C.ar    1  UNL1        0.0079
     10 C          63.5082   85.1848   10.9737 C.ar    1  UNL1        0.0299
     11 C          63.0908   84.6200    9.6482 C.ar    1  UNL1        0.1671
     12 F          63.5891   83.2727    9.2167 F       1  UNL1       -0.2018
     13 C          62.1751   85.4026    8.7543 C.ar    1  UNL1        0.1671
     14 F          61.7577   84.8378    7.4289 F       1  UNL1       -0.2018
     15 C          61.6767   86.7500    9.1858 C.ar    1  UNL1        0.0297
     16 C          62.0941   87.3148   10.5112 C.ar    1  UNL1        0.0033
     17 H          60.3076   91.5628    9.5551 H       1  UNL1        0.1233
     18 O          61.5530   89.3857   14.5625 O.2     1  UNL1       -0.2747
     19 C          62.1798   90.0063   13.3492 C.2     1  UNL1        0.2294
     20 N          63.4558   90.7840   13.4790 N.am    1  UNL1       -0.2769
     21 C          64.0826   91.4047   12.2657 C.3     1  UNL1        0.0758
     22 C          64.9882   92.4313   11.6527 C.3     1  UNL1        0.0215
     23 C          64.2627   91.4529   10.7773 C.3     1  UNL1        0.0215
     24 C          64.1051   90.9412   14.8220 C.3     1  UNL1        0.1209
     25 C          65.4786   91.5349   14.9262 C.ar    1  UNL1        0.0083
     26 C          66.5021   91.2477   13.8679 C.ar    1  UNL1       -0.0009
     27 C          67.8757   91.8414   13.9721 C.ar    1  UNL1        0.0112
     28 C          68.2258   92.7223   15.1346 C.ar    1  UNL1        0.0585
     29 CL         69.5993   93.3160   15.2388 Cl      1  UNL1       -0.0822
     30 C          67.2023   93.0096   16.1929 C.ar    1  UNL1        0.0225
     31 C          65.8287   92.4159   16.0888 C.ar    1  UNL1        0.0561
     32 CL         64.8053   92.7031   17.1470 Cl      1  UNL1       -0.0825
@<TRIPOS>BOND
     1    18    19    2
     2     1    19    1
     3     1     2    1
     4     2     3    1
     5     3     4    1
     6     4     5    1
     7     6     5    1
     8     6     7    1
     9     7     8    1
    10     8     9    1
    11     9    10   ar
    12    10    11   ar
    13    11    12    1
    14    11    13   ar
    15    13    14    1
    16    13    15   ar
    17    15    16   ar
    18    19    20   am
    19    20    24    1
    20    24    25    1
    21    25    26   ar
    22    26    27   ar
    23    27    28   ar
    24    28    29    1
    25    28    30   ar
    26    30    31   ar
    27    31    32    1
    28    20    21    1
    29    21    22    1
    30    22    23    1
    31     6     1    1
    32    16     9   ar
    33    31    25   ar
    34    23    21    1
    35    16     6    1
    36     3    17    1
@<TRIPOS>MOLECULE
*****
 32 36 0 0 0
SMALL
GASTEIGER

@<TRIPOS>ATOM
      1 C          60.0876   95.8041   -2.1082 C.3     1  UNL1        0.1211
      2 C          58.9531   96.6632   -2.5825 C.3     1  UNL1        0.0804
      3 N          58.7147   96.8464   -4.0520 N.3     1  UNL1       -0.2969
      4 C          59.6107   96.1706   -5.0473 C.3     1  UNL1        0.0714
      5 C          60.7451   95.3115   -4.5730 C.3     1  UNL1        0.0490
      6 C          60.9836   95.1283   -3.1035 C.3     1  UNL1        0.1224
      7 O          61.3433   94.8533   -1.6733 O.3     1  UNL1       -0.3492
      8 C          62.5396   93.9484   -1.6620 C.3     1  UNL1        0.1687
      9 C          62.9192   93.6640   -3.0850 C.ar    1  UNL1        0.0079
     10 C          64.0162   92.8354   -3.6847 C.ar    1  UNL1        0.0299
     11 C          64.1518   92.7358   -5.1753 C.ar    1  UNL1        0.1671
     12 F          65.2488   91.9071   -5.7750 F       1  UNL1       -0.2018
     13 C          63.1901   93.4650   -6.0661 C.ar    1  UNL1        0.1671
     14 F          63.3256   93.3654   -7.5567 F       1  UNL1       -0.2018
     15 C          62.0930   94.2937   -5.4665 C.ar    1  UNL1        0.0297
     16 C          61.9575   94.3932   -3.9759 C.ar    1  UNL1        0.0033
     17 H          58.7718   97.8479   -4.2370 H       1  UNL1        0.1233
     18 O          61.2961   96.5106    0.0805 O.2     1  UNL1       -0.2747
     19 C          60.3261   95.6208   -0.6387 C.2     1  UNL1        0.2294
     20 N          59.5945   94.5476    0.1117 N.am    1  UNL1       -0.2769
     21 C          58.6244   93.6578   -0.6074 C.3     1  UNL1        0.0758
     22 C          57.2152   93.2144   -0.8675 C.3     1  UNL1        0.0215
     23 C          58.3533   92.5599   -1.5930 C.3     1  UNL1        0.0215
     24 C          59.8329   94.3643    1.5813 C.3     1  UNL1        0.1209
     25 C          60.8777   93.3988    2.0568 C.ar    1  UNL1        0.0083
     26 C          62.2081   93.3336    1.3672 C.ar    1  UNL1       -0.0009
     27 C          63.2529   92.3680    1.8427 C.ar    1  UNL1        0.0112
     28 C          62.9673   91.4678    3.0080 C.ar    1  UNL1        0.0585
     29 CL         64.0121   90.5023    3.4836 Cl      1  UNL1       -0.0822
     30 C          61.6368   91.5330    3.6978 C.ar    1  UNL1        0.0225
     31 C          60.5920   92.4985    3.2222 C.ar    1  UNL1        0.0561
     32 CL         59.2616   92.5638    3.9119 Cl      1  UNL1       -0.0825
@<TRIPOS>BOND
     1    18    19    2
     2     1    19    1
     3     1     2    1
     4     2     3    1
     5     3     4    1
     6     4     5    1
     7     6     5    1
     8     6     7    1
     9     7     8    1
    10     8     9    1
    11     9    10   ar
    12    10    11   ar
    13    11    12    1
    14    11    13   ar
    15    13    14    1
    16    13    15   ar
    17    15    16   ar
    18    19    20   am
    19    20    24    1
    20    24    25    1
    21    25    26   ar
    22    26    27   ar
    23    27    28   ar
    24    28    29    1
    25    28    30   ar
    26    30    31   ar
    27    31    32    1
    28    20    21    1
    29    21    22    1
    30    22    23    1
    31     6     1    1
    32    16     9   ar
    33    31    25   ar
    34    23    21    1
    35    16     6    1
    36     3    17    1
