@<TRIPOS>MOLECULE
*****
 42 45 0 0 0
SMALL
GASTEIGER

@<TRIPOS>ATOM
      1 C          61.9962   87.5973   11.5480 C.3     1  UNL1        0.1554
      2 C          63.7018   86.9531   13.3990 C.2     1  UNL1        0.4017
      3 O          63.8764   88.4027   13.7426 O.2     1  UNL1       -0.2264
      4 N          62.7617   86.5504   12.3017 N.am    1  UNL1       -0.2637
      5 H          62.6471   85.5990   12.0761 H       1  UNL1        0.1532
      6 O          64.4672   85.9062   14.1526 O.3     1  UNL1       -0.4419
      7 C          64.1648   83.9054   13.5160 C.3     1  UNL1        0.0437
      8 C          63.7527   84.7118   14.7118 C.3     1  UNL1        0.1378
      9 C          63.3406   85.5181   15.9076 C.3     1  UNL1        0.0437
     10 C          63.0381   83.5172   15.2710 C.3     1  UNL1        0.0437
     11 C          62.2107   89.0498   11.8552 C.2     1  UNL1        0.2411
     12 O          61.3603   89.7321   12.8853 O.2     1  UNL1       -0.2733
     13 N          63.2756   89.8200   11.1321 N.am    1  UNL1       -0.2966
     14 H          63.8338   89.3722   10.4560 H       1  UNL1        0.1499
     15 C          63.4901   91.2724   11.4392 C.3     1  UNL1        0.1543
     16 C          64.5059   91.6801   12.4649 C.ar    1  UNL1        0.1418
     17 N          64.3327   91.6111   13.9533 N.ar    1  UNL1       -0.2276
     18 C          65.5929   92.1168   14.5906 C.ar    1  UNL1        0.1167
     19 C          65.9965   92.2791   16.0261 C.ar    1  UNL1        0.0238
     20 C          67.3522   92.8229   16.3670 C.ar    1  UNL1        0.0223
     21 C          68.3043   93.2044   15.2725 C.ar    1  UNL1        0.1006
     22 N          67.9007   93.0421   13.8370 N.ar    1  UNL1       -0.2252
     23 C          66.5450   92.4983   13.4960 C.ar    1  UNL1        0.1627
     24 N          65.8732   92.2284   12.1823 N.ar    1  UNL1       -0.2947
     25 C          66.4648   92.4653   10.8244 C.3     1  UNL1        0.1354
     26 C          66.6572   93.8661   10.3241 C.ar    1  UNL1        0.0005
     27 C          66.1044   95.0232   11.1025 C.ar    1  UNL1       -0.0024
     28 C          66.2968   96.4241   10.6022 C.ar    1  UNL1       -0.0003
     29 C          67.0420   96.6681    9.3234 C.ar    1  UNL1       -0.0000
     30 C          67.5947   95.5111    8.5450 C.ar    1  UNL1       -0.0003
     31 C          67.4024   94.1102    9.0454 C.ar    1  UNL1       -0.0024
     32 C          61.0163   87.1918   10.4872 C.3     1  UNL1        0.0553
     33 C          61.4695   86.3541    9.3283 C.ar    1  UNL1       -0.0161
     34 C          62.6530   85.4448    9.4776 C.ar    1  UNL1       -0.0042
     35 C          63.1061   84.6072    8.3187 C.ar    1  UNL1       -0.0003
     36 C          62.3757   84.6789    7.0105 C.ar    1  UNL1       -0.0001
     37 C          61.1922   85.5883    6.8612 C.ar    1  UNL1        0.0035
     38 C          60.7391   86.4259    8.0201 C.ar    1  UNL1        0.0675
     39 C          59.5555   87.3353    7.8708 C.3     1  UNL1        0.4183
     40 F          58.3720   88.2446    7.7216 F       1  UNL1       -0.1659
     41 F          58.6541   86.1424    7.7510 F       1  UNL1       -0.1659
     42 F          60.4569   88.5282    7.9907 F       1  UNL1       -0.1659
@<TRIPOS>BOND
     1     7     8    1
     2     8     9    1
     3     8    10    1
     4     8     6    1
     5     6     2    1
     6     2     3    2
     7     2     4   am
     8     4     1    1
     9     1    32    1
    10    32    33    1
    11    33    34   ar
    12    34    35   ar
    13    35    36   ar
    14    36    37   ar
    15    37    38   ar
    16    38    39    1
    17    39    40    1
    18    39    41    1
    19    39    42    1
    20     1    11    1
    21    11    12    2
    22    11    13   am
    23    13    15    1
    24    15    16    1
    25    16    17   ar
    26    17    18   ar
    27    18    19   ar
    28    19    20   ar
    29    20    21   ar
    30    21    22   ar
    31    22    23   ar
    32    23    24   ar
    33    24    25    1
    34    25    26    1
    35    26    27   ar
    36    27    28   ar
    37    28    29   ar
    38    29    30   ar
    39    30    31   ar
    40    38    33   ar
    41    24    16   ar
    42    31    26   ar
    43    23    18   ar
    44     4     5    1
    45    13    14    1
@<TRIPOS>MOLECULE
*****
 42 45 0 0 0
SMALL
GASTEIGER

@<TRIPOS>ATOM
      1 C          62.9934   87.2407   12.2070 C.3     1  UNL1        0.1554
      2 C          60.8857   87.1542   10.6903 C.2     1  UNL1        0.4017
      3 O          60.1008   87.8846   11.7393 O.2     1  UNL1       -0.2264
      4 N          62.3320   86.8323   10.9242 N.am    1  UNL1       -0.2637
      5 H          62.8472   86.3529   10.2356 H       1  UNL1        0.1532
      6 O          60.2244   86.7458    9.4074 O.3     1  UNL1       -0.4419
      7 C          58.9948   86.7762    7.6792 C.3     1  UNL1        0.0437
      8 C          59.8395   87.7861    8.3977 C.3     1  UNL1        0.1378
      9 C          60.6843   88.7960    9.1163 C.3     1  UNL1        0.0437
     10 C          59.4546   88.8265    7.3880 C.3     1  UNL1        0.0437
     11 C          63.1176   88.6940   12.5573 C.2     1  UNL1        0.2411
     12 O          63.0551   89.1277   13.9918 O.2     1  UNL1       -0.2733
     13 N          63.3042   89.7135   11.4729 N.am    1  UNL1       -0.2966
     14 H          63.3452   89.4288   10.5314 H       1  UNL1        0.1499
     15 C          63.4284   91.1667   11.8231 C.3     1  UNL1        0.1543
     16 C          64.5041   91.6221   12.7641 C.ar    1  UNL1        0.1418
     17 N          64.4279   91.6111   14.2621 N.ar    1  UNL1       -0.2276
     18 C          65.7215   92.1507   14.7961 C.ar    1  UNL1        0.1167
     19 C          66.2152   92.3729   16.1950 C.ar    1  UNL1        0.0238
     20 C          67.5846   92.9396   16.4259 C.ar    1  UNL1        0.0223
     21 C          68.4604   93.2842   15.2579 C.ar    1  UNL1        0.1006
     22 N          67.9668   93.0621   13.8590 N.ar    1  UNL1       -0.2252
     23 C          66.5973   92.4953   13.6282 C.ar    1  UNL1        0.1627
     24 N          65.8449   92.1687   12.3723 N.ar    1  UNL1       -0.2947
     25 C          66.3455   92.3557   10.9707 C.3     1  UNL1        0.1354
     26 C          66.6055   93.7362   10.4451 C.ar    1  UNL1        0.0005
     27 C          66.1031   94.9324   11.1980 C.ar    1  UNL1       -0.0024
     28 C          66.3631   96.3130   10.6724 C.ar    1  UNL1       -0.0003
     29 C          67.1256   96.4975    9.3938 C.ar    1  UNL1       -0.0000
     30 C          67.6280   95.3014    8.6410 C.ar    1  UNL1       -0.0003
     31 C          67.3680   93.9207    9.1666 C.ar    1  UNL1       -0.0024
     32 C          63.5306   86.1959   13.1397 C.3     1  UNL1        0.0553
     33 C          63.1846   84.7518   12.9275 C.ar    1  UNL1       -0.0161
     34 C          63.2660   84.1551   11.5537 C.ar    1  UNL1       -0.0042
     35 C          62.9200   82.7111   11.3416 C.ar    1  UNL1       -0.0003
     36 C          62.4925   81.8638   12.5032 C.ar    1  UNL1       -0.0001
     37 C          62.4111   82.4605   13.8770 C.ar    1  UNL1        0.0035
     38 C          62.7571   83.9045   14.0891 C.ar    1  UNL1        0.0675
     39 C          62.6758   84.5013   15.4629 C.3     1  UNL1        0.4183
     40 F          62.5943   85.0980   16.8367 F       1  UNL1       -0.1659
     41 F          61.2130   84.7655   15.2614 F       1  UNL1       -0.1659
     42 F          64.1385   84.2371   15.6644 F       1  UNL1       -0.1659
@<TRIPOS>BOND
     1     7     8    1
     2     8     9    1
     3     8    10    1
     4     8     6    1
     5     6     2    1
     6     2     3    2
     7     2     4   am
     8     4     1    1
     9     1    32    1
    10    32    33    1
    11    33    34   ar
    12    34    35   ar
    13    35    36   ar
    14    36    37   ar
    15    37    38   ar
    16    38    39    1
    17    39    40    1
    18    39    41    1
    19    39    42    1
    20     1    11    1
    21    11    12    2
    22    11    13   am
    23    13    15    1
    24    15    16    1
    25    16    17   ar
    26    17    18   ar
    27    18    19   ar
    28    19    20   ar
    29    20    21   ar
    30    21    22   ar
    31    22    23   ar
    32    23    24   ar
    33    24    25    1
    34    25    26    1
    35    26    27   ar
    36    27    28   ar
    37    28    29   ar
    38    29    30   ar
    39    30    31   ar
    40    38    33   ar
    41    24    16   ar
    42    31    26   ar
    43    23    18   ar
    44     4     5    1
    45    13    14    1
@<TRIPOS>MOLECULE
*****
 42 45 0 0 0
SMALL
GASTEIGER

@<TRIPOS>ATOM
      1 C          62.5486   88.1364   11.2671 C.3     1  UNL1        0.1554
      2 C          63.1957   86.5670   13.2339 C.2     1  UNL1        0.4017
      3 O          64.2516   87.5416   13.6642 O.2     1  UNL1       -0.2264
      4 N          62.3442   86.8644   12.0353 N.am    1  UNL1       -0.2637
      5 H          61.6512   86.2247   11.7528 H       1  UNL1        0.1532
      6 O          62.9914   85.2949   14.0020 O.3     1  UNL1       -0.4419
      7 C          62.4889   83.5841   12.8530 C.3     1  UNL1        0.0437
      8 C          63.7115   84.0456   13.5893 C.3     1  UNL1        0.1378
      9 C          64.9341   84.5071   14.3256 C.3     1  UNL1        0.0437
     10 C          64.4317   82.7962   13.1765 C.3     1  UNL1        0.0437
     11 C          62.7104   89.4363   11.9980 C.2     1  UNL1        0.2411
     12 O          62.0245   89.6464   13.3153 O.2     1  UNL1       -0.2733
     13 N          63.5581   90.5260   11.4116 N.am    1  UNL1       -0.2966
     14 H          64.0083   90.3880   10.5470 H       1  UNL1        0.1499
     15 C          63.7200   91.8258   12.1425 C.3     1  UNL1        0.1543
     16 C          64.9087   92.0437   13.0310 C.ar    1  UNL1        0.1418
     17 N          64.9102   91.9919   14.5301 N.ar    1  UNL1       -0.2276
     18 C          66.3070   92.2678   15.0021 C.ar    1  UNL1        0.1167
     19 C          66.9056   92.3454   16.3753 C.ar    1  UNL1        0.0238
     20 C          68.3659   92.6452   16.5410 C.ar    1  UNL1        0.0223
     21 C          69.2277   92.8675   15.3336 C.ar    1  UNL1        0.1006
     22 N          68.6292   92.7899   13.9604 N.ar    1  UNL1       -0.2252
     23 C          67.1688   92.4901   13.7946 C.ar    1  UNL1        0.1627
     24 N          66.3046   92.3516   12.5765 N.ar    1  UNL1       -0.2947
     25 C          66.7569   92.4956   11.1536 C.3     1  UNL1        0.1354
     26 C          66.8520   93.8569   10.5309 C.ar    1  UNL1        0.0005
     27 C          66.2714   95.0466   11.2364 C.ar    1  UNL1       -0.0024
     28 C          66.3664   96.4079   10.6138 C.ar    1  UNL1       -0.0003
     29 C          67.0423   96.5796    9.2857 C.ar    1  UNL1       -0.0000
     30 C          67.6229   95.3900    8.5802 C.ar    1  UNL1       -0.0003
     31 C          67.5278   94.0287    9.2028 C.ar    1  UNL1       -0.0024
     32 C          62.5911   88.1086    9.7680 C.3     1  UNL1        0.0553
     33 C          61.3969   87.6371    8.9923 C.ar    1  UNL1       -0.0161
     34 C          60.2852   88.5922    8.6730 C.ar    1  UNL1       -0.0042
     35 C          59.0910   88.1207    7.8975 C.ar    1  UNL1       -0.0003
     36 C          59.0085   86.6941    7.4412 C.ar    1  UNL1       -0.0001
     37 C          60.1202   85.7391    7.7605 C.ar    1  UNL1        0.0035
     38 C          61.3144   86.2106    8.5361 C.ar    1  UNL1        0.0675
     39 C          62.4262   85.2555    8.8554 C.3     1  UNL1        0.4183
     40 F          63.5379   84.3005    9.1748 F       1  UNL1       -0.1659
     41 F          61.7646   84.9215   10.1595 F       1  UNL1       -0.1659
     42 F          63.0877   85.5896    7.5514 F       1  UNL1       -0.1659
@<TRIPOS>BOND
     1     7     8    1
     2     8     9    1
     3     8    10    1
     4     8     6    1
     5     6     2    1
     6     2     3    2
     7     2     4   am
     8     4     1    1
     9     1    32    1
    10    32    33    1
    11    33    34   ar
    12    34    35   ar
    13    35    36   ar
    14    36    37   ar
    15    37    38   ar
    16    38    39    1
    17    39    40    1
    18    39    41    1
    19    39    42    1
    20     1    11    1
    21    11    12    2
    22    11    13   am
    23    13    15    1
    24    15    16    1
    25    16    17   ar
    26    17    18   ar
    27    18    19   ar
    28    19    20   ar
    29    20    21   ar
    30    21    22   ar
    31    22    23   ar
    32    23    24   ar
    33    24    25    1
    34    25    26    1
    35    26    27   ar
    36    27    28   ar
    37    28    29   ar
    38    29    30   ar
    39    30    31   ar
    40    38    33   ar
    41    24    16   ar
    42    31    26   ar
    43    23    18   ar
    44     4     5    1
    45    13    14    1
@<TRIPOS>MOLECULE
*****
 42 45 0 0 0
SMALL
GASTEIGER

@<TRIPOS>ATOM
      1 C          62.7656   87.4263   12.4202 C.3     1  UNL1        0.1554
      2 C          61.4385   87.2231   10.1959 C.2     1  UNL1        0.4017
      3 O          62.6211   87.7545    9.4417 O.2     1  UNL1       -0.2264
      4 N          61.5107   87.0590   11.6852 N.am    1  UNL1       -0.2637
      5 H          60.7345   86.7101   12.1802 H       1  UNL1        0.1532
      6 O          60.1836   86.8557    9.4609 O.3     1  UNL1       -0.4419
      7 C          59.9687   88.9462    9.1720 C.3     1  UNL1        0.0437
      8 C          59.6852   87.7266    8.3460 C.3     1  UNL1        0.1378
      9 C          59.4017   86.5071    7.5200 C.3     1  UNL1        0.0437
     10 C          59.1868   88.5977    7.2311 C.3     1  UNL1        0.0437
     11 C          63.0262   88.8562   12.7913 C.2     1  UNL1        0.2411
     12 O          63.0583   89.2625   14.2348 O.2     1  UNL1       -0.2733
     13 N          63.2546   89.8797   11.7187 N.am    1  UNL1       -0.2966
     14 H          63.2335   89.6130   10.7713 H       1  UNL1        0.1499
     15 C          63.5152   91.3095   12.0898 C.3     1  UNL1        0.1543
     16 C          64.6913   91.6580   12.9531 C.ar    1  UNL1        0.1418
     17 N          64.7264   91.6205   14.4522 N.ar    1  UNL1       -0.2276
     18 C          66.0956   92.0444   14.8945 C.ar    1  UNL1        0.1167
     19 C          66.7086   92.1964   16.2551 C.ar    1  UNL1        0.0238
     20 C          68.1326   92.6480   16.3899 C.ar    1  UNL1        0.0223
     21 C          68.9437   92.9475   15.1641 C.ar    1  UNL1        0.1006
     22 N          68.3307   92.7955   13.8036 N.ar    1  UNL1       -0.2252
     23 C          66.9066   92.3440   13.6688 C.ar    1  UNL1        0.1627
     24 N          66.0387   92.1051   12.4689 N.ar    1  UNL1       -0.2947
     25 C          66.4466   92.2824   11.0364 C.3     1  UNL1        0.1354
     26 C          66.6722   93.6592   10.4856 C.ar    1  UNL1        0.0005
     27 C          67.4911   93.8448    9.2426 C.ar    1  UNL1       -0.0024
     28 C          67.7167   95.2216    8.6917 C.ar    1  UNL1       -0.0003
     29 C          67.1234   96.4129    9.3839 C.ar    1  UNL1       -0.0000
     30 C          66.3046   96.2272   10.6268 C.ar    1  UNL1       -0.0003
     31 C          66.0790   94.8504   11.1777 C.ar    1  UNL1       -0.0024
     32 C          63.7599   86.3639   12.7841 C.3     1  UNL1        0.0553
     33 C          63.2886   85.0603   13.3576 C.ar    1  UNL1       -0.0161
     34 C          62.9749   84.9543   14.8205 C.ar    1  UNL1       -0.0042
     35 C          62.5036   83.6508   15.3938 C.ar    1  UNL1       -0.0003
     36 C          62.3461   82.4534   14.5042 C.ar    1  UNL1       -0.0001
     37 C          62.6598   82.5594   13.0413 C.ar    1  UNL1        0.0035
     38 C          63.1311   83.8629   12.4680 C.ar    1  UNL1        0.0675
     39 C          63.4449   83.9691   11.0049 C.3     1  UNL1        0.4183
     40 F          63.7587   84.0752    9.5420 F       1  UNL1       -0.1659
     41 F          64.8692   83.5896   11.2829 F       1  UNL1       -0.1659
     42 F          62.0206   84.3485   10.7269 F       1  UNL1       -0.1659
@<TRIPOS>BOND
     1     7     8    1
     2     8     9    1
     3     8    10    1
     4     8     6    1
     5     6     2    1
     6     2     3    2
     7     2     4   am
     8     4     1    1
     9     1    32    1
    10    32    33    1
    11    33    34   ar
    12    34    35   ar
    13    35    36   ar
    14    36    37   ar
    15    37    38   ar
    16    38    39    1
    17    39    40    1
    18    39    41    1
    19    39    42    1
    20     1    11    1
    21    11    12    2
    22    11    13   am
    23    13    15    1
    24    15    16    1
    25    16    17   ar
    26    17    18   ar
    27    18    19   ar
    28    19    20   ar
    29    20    21   ar
    30    21    22   ar
    31    22    23   ar
    32    23    24   ar
    33    24    25    1
    34    25    26    1
    35    26    27   ar
    36    27    28   ar
    37    28    29   ar
    38    29    30   ar
    39    30    31   ar
    40    38    33   ar
    41    24    16   ar
    42    31    26   ar
    43    23    18   ar
    44     4     5    1
    45    13    14    1
@<TRIPOS>MOLECULE
*****
 42 45 0 0 0
SMALL
GASTEIGER

@<TRIPOS>ATOM
      1 C          64.0266   89.6827   14.6118 C.3     1  UNL1        0.1554
      2 C          62.3967   89.8257   12.5936 C.2     1  UNL1        0.4017
      3 O          63.0240   88.5992   12.0001 O.2     1  UNL1       -0.2264
      4 N          62.8981   90.3675   13.8995 N.am    1  UNL1       -0.2637
      5 H          62.4864   91.1725   14.2890 H       1  UNL1        0.1532
      6 O          61.2682   90.5105   11.8813 O.3     1  UNL1       -0.4419
      7 C          59.5827   89.3528   11.3167 C.3     1  UNL1        0.0437
      8 C          60.7489   89.9533   10.5891 C.3     1  UNL1        0.1378
      9 C          61.9150   90.5537    9.8615 C.3     1  UNL1        0.0437
     10 C          60.2295   89.3959    9.2969 C.3     1  UNL1        0.0437
     11 C          63.7741   88.4144   15.3720 C.2     1  UNL1        0.2411
     12 O          63.1740   88.4702   16.7456 O.2     1  UNL1       -0.2733
     13 N          64.1217   87.0905   14.7586 N.am    1  UNL1       -0.2966
     14 H          64.5155   87.0539   13.8570 H       1  UNL1        0.1499
     15 C          63.8692   85.8223   15.5187 C.3     1  UNL1        0.1543
     16 C          63.5984   84.5457   14.7790 C.ar    1  UNL1        0.1418
     17 N          63.9601   83.1653   15.2410 N.ar    1  UNL1       -0.2276
     18 C          63.5035   82.1919   14.1949 C.ar    1  UNL1        0.1167
     19 C          63.5910   80.6970   14.1086 C.ar    1  UNL1        0.0238
     20 C          63.0345   79.9810   12.9138 C.ar    1  UNL1        0.0223
     21 C          62.3906   80.7599   11.8053 C.ar    1  UNL1        0.1006
     22 N          62.3032   82.2548   11.8916 N.ar    1  UNL1       -0.2252
     23 C          62.8597   82.9708   13.0864 C.ar    1  UNL1        0.1627
     24 N          62.9183   84.4256   13.4474 N.ar    1  UNL1       -0.2947
     25 C          62.3896   85.5608   12.6218 C.3     1  UNL1        0.1354
     26 C          62.3831   85.4603   11.1252 C.ar    1  UNL1        0.0005
     27 C          61.2960   86.1250   10.3336 C.ar    1  UNL1       -0.0024
     28 C          61.2893   86.0246    8.8370 C.ar    1  UNL1       -0.0003
     29 C          62.3699   85.2594    8.1319 C.ar    1  UNL1       -0.0000
     30 C          63.4569   84.5948    8.9235 C.ar    1  UNL1       -0.0003
     31 C          63.4635   84.6953   10.4201 C.ar    1  UNL1       -0.0024
     32 C          65.4076   90.2661   14.5640 C.3     1  UNL1        0.0553
     33 C          65.6632   91.5262   13.7912 C.ar    1  UNL1       -0.0161
     34 C          65.0368   91.7186   12.4420 C.ar    1  UNL1       -0.0042
     35 C          65.2923   92.9786   11.6693 C.ar    1  UNL1       -0.0003
     36 C          66.1743   94.0461   12.2459 C.ar    1  UNL1       -0.0001
     37 C          66.8007   93.8537   13.5952 C.ar    1  UNL1        0.0035
     38 C          66.5452   92.5937   14.3678 C.ar    1  UNL1        0.0675
     39 C          67.1716   92.4012   15.7171 C.3     1  UNL1        0.4183
     40 F          67.7980   92.2087   17.0664 F       1  UNL1       -0.1659
     41 F          68.4452   91.9554   15.0622 F       1  UNL1       -0.1659
     42 F          65.8979   92.8470   16.3721 F       1  UNL1       -0.1659
@<TRIPOS>BOND
     1     7     8    1
     2     8     9    1
     3     8    10    1
     4     8     6    1
     5     6     2    1
     6     2     3    2
     7     2     4   am
     8     4     1    1
     9     1    32    1
    10    32    33    1
    11    33    34   ar
    12    34    35   ar
    13    35    36   ar
    14    36    37   ar
    15    37    38   ar
    16    38    39    1
    17    39    40    1
    18    39    41    1
    19    39    42    1
    20     1    11    1
    21    11    12    2
    22    11    13   am
    23    13    15    1
    24    15    16    1
    25    16    17   ar
    26    17    18   ar
    27    18    19   ar
    28    19    20   ar
    29    20    21   ar
    30    21    22   ar
    31    22    23   ar
    32    23    24   ar
    33    24    25    1
    34    25    26    1
    35    26    27   ar
    36    27    28   ar
    37    28    29   ar
    38    29    30   ar
    39    30    31   ar
    40    38    33   ar
    41    24    16   ar
    42    31    26   ar
    43    23    18   ar
    44     4     5    1
    45    13    14    1
@<TRIPOS>MOLECULE
*****
 42 45 0 0 0
SMALL
GASTEIGER

@<TRIPOS>ATOM
      1 C          65.1268   92.5767   11.8541 C.3     1  UNL1        0.1554
      2 C          67.0994   92.8426   13.5239 C.2     1  UNL1        0.4017
      3 O          67.7703   91.6435   12.9223 O.2     1  UNL1       -0.2264
      4 N          65.7776   93.3092   12.9898 N.am    1  UNL1       -0.2637
      5 H          65.3372   94.0962   13.3846 H       1  UNL1        0.1532
      6 O          67.7501   93.5751   14.6597 O.3     1  UNL1       -0.4419
      7 C          69.7260   93.1355   15.2940 C.3     1  UNL1        0.0437
      8 C          68.3523   92.8084   15.7996 C.3     1  UNL1        0.1378
      9 C          66.9785   92.4813   16.3053 C.3     1  UNL1        0.0437
     10 C          68.9545   92.0417   16.9396 C.3     1  UNL1        0.0437
     11 C          64.0113   91.6112   12.1254 C.2     1  UNL1        0.2411
     12 O          63.5157   91.4124   13.5271 O.2     1  UNL1       -0.2733
     13 N          63.3915   90.8445   10.9949 N.am    1  UNL1       -0.2966
     14 H          63.7167   90.9750   10.0749 H       1  UNL1        0.1499
     15 C          62.2760   89.8790   11.2662 C.3     1  UNL1        0.1543
     16 C          62.5824   88.5060   11.7867 C.ar    1  UNL1        0.1418
     17 N          63.5408   88.1758   12.8924 N.ar    1  UNL1       -0.2276
     18 C          63.5349   86.6879   13.0820 C.ar    1  UNL1        0.1167
     19 C          64.2813   85.7936   14.0271 C.ar    1  UNL1        0.0238
     20 C          64.0656   84.3098   13.9836 C.ar    1  UNL1        0.0223
     21 C          63.1037   83.7204   12.9951 C.ar    1  UNL1        0.1006
     22 N          62.3573   84.6147   12.0501 N.ar    1  UNL1       -0.2252
     23 C          62.5730   86.0984   12.0935 C.ar    1  UNL1        0.1627
     24 N          61.9843   87.2221   11.2930 N.ar    1  UNL1       -0.2947
     25 C          60.9747   87.0858   10.1920 C.3     1  UNL1        0.1354
     26 C          61.3018   86.2799    8.9700 C.ar    1  UNL1        0.0005
     27 C          60.2465   86.0254    7.9347 C.ar    1  UNL1       -0.0024
     28 C          60.5735   85.2195    6.7126 C.ar    1  UNL1       -0.0003
     29 C          61.9560   84.6681    6.5257 C.ar    1  UNL1       -0.0000
     30 C          63.0112   84.9226    7.5609 C.ar    1  UNL1       -0.0003
     31 C          62.6842   85.7285    8.7830 C.ar    1  UNL1       -0.0024
     32 C          65.5915   92.8096   10.4470 C.3     1  UNL1        0.0553
     33 C          66.1110   94.1573   10.0422 C.ar    1  UNL1       -0.0161
     34 C          65.3249   95.3928   10.3671 C.ar    1  UNL1       -0.0042
     35 C          65.8445   96.7404    9.9622 C.ar    1  UNL1       -0.0003
     36 C          67.1501   96.8526    9.2324 C.ar    1  UNL1       -0.0001
     37 C          67.9363   95.6171    8.9075 C.ar    1  UNL1        0.0035
     38 C          67.4167   94.2695    9.3124 C.ar    1  UNL1        0.0675
     39 C          68.2029   93.0340    8.9874 C.3     1  UNL1        0.4183
     40 F          68.9890   91.7985    8.6626 F       1  UNL1       -0.1659
     41 F          68.3210   92.7245   10.4504 F       1  UNL1       -0.1659
     42 F          68.0847   93.3435    7.5245 F       1  UNL1       -0.1659
@<TRIPOS>BOND
     1     7     8    1
     2     8     9    1
     3     8    10    1
     4     8     6    1
     5     6     2    1
     6     2     3    2
     7     2     4   am
     8     4     1    1
     9     1    32    1
    10    32    33    1
    11    33    34   ar
    12    34    35   ar
    13    35    36   ar
    14    36    37   ar
    15    37    38   ar
    16    38    39    1
    17    39    40    1
    18    39    41    1
    19    39    42    1
    20     1    11    1
    21    11    12    2
    22    11    13   am
    23    13    15    1
    24    15    16    1
    25    16    17   ar
    26    17    18   ar
    27    18    19   ar
    28    19    20   ar
    29    20    21   ar
    30    21    22   ar
    31    22    23   ar
    32    23    24   ar
    33    24    25    1
    34    25    26    1
    35    26    27   ar
    36    27    28   ar
    37    28    29   ar
    38    29    30   ar
    39    30    31   ar
    40    38    33   ar
    41    24    16   ar
    42    31    26   ar
    43    23    18   ar
    44     4     5    1
    45    13    14    1
@<TRIPOS>MOLECULE
*****
 42 45 0 0 0
SMALL
GASTEIGER

@<TRIPOS>ATOM
      1 C          64.0474   89.8004   14.7340 C.3     1  UNL1        0.1554
      2 C          64.9551   91.8351   16.0705 C.2     1  UNL1        0.4017
      3 O          63.5718   92.1205   16.5754 O.2     1  UNL1       -0.2264
      4 N          65.1929   90.6750   15.1497 N.am    1  UNL1       -0.2637
      5 H          66.1008   90.4876   14.8183 H       1  UNL1        0.1532
      6 O          66.1006   92.7097   16.4862 O.3     1  UNL1       -0.4419
      7 C          66.5656   93.7151   14.6771 C.3     1  UNL1        0.0437
      8 C          67.3168   92.8172   15.6149 C.3     1  UNL1        0.1378
      9 C          68.0680   91.9193   16.5527 C.3     1  UNL1        0.0437
     10 C          68.5330   92.9247   14.7435 C.3     1  UNL1        0.0437
     11 C          63.8132   88.4911   15.4276 C.2     1  UNL1        0.2411
     12 O          63.0665   88.4543   16.7280 O.2     1  UNL1       -0.2733
     13 N          64.3257   87.2187   14.8208 N.am    1  UNL1       -0.2966
     14 H          64.8158   87.2428   13.9673 H       1  UNL1        0.1499
     15 C          64.0915   85.9095   15.5144 C.3     1  UNL1        0.1543
     16 C          63.7477   84.6879   14.7145 C.ar    1  UNL1        0.1418
     17 N          63.8705   83.2668   15.1786 N.ar    1  UNL1       -0.2276
     18 C          63.4195   82.3736   14.0611 C.ar    1  UNL1        0.1167
     19 C          63.3226   80.8813   13.9458 C.ar    1  UNL1        0.0238
     20 C          62.8242   80.2580   12.6758 C.ar    1  UNL1        0.0223
     21 C          62.4227   81.1271   11.5210 C.ar    1  UNL1        0.1006
     22 N          62.5197   82.6194   11.6363 N.ar    1  UNL1       -0.2252
     23 C          63.0181   83.2427   12.9063 C.ar    1  UNL1        0.1627
     24 N          63.2209   84.6730   13.3102 N.ar    1  UNL1       -0.2947
     25 C          62.9453   85.8771   12.4591 C.3     1  UNL1        0.1354
     26 C          62.5579   85.7057   11.0202 C.ar    1  UNL1        0.0005
     27 C          63.5197   85.0803   10.0538 C.ar    1  UNL1       -0.0024
     28 C          63.1323   84.9088    8.6149 C.ar    1  UNL1       -0.0003
     29 C          61.7830   85.3628    8.1423 C.ar    1  UNL1       -0.0000
     30 C          60.8212   85.9882    9.1086 C.ar    1  UNL1       -0.0003
     31 C          61.2086   86.1596   10.5475 C.ar    1  UNL1       -0.0024
     32 C          63.1361   90.2350   13.6246 C.3     1  UNL1        0.0553
     33 C          63.6858   91.0049   12.4606 C.ar    1  UNL1       -0.0161
     34 C          64.8887   91.8823   12.6425 C.ar    1  UNL1       -0.0042
     35 C          65.4384   92.6522   11.4785 C.ar    1  UNL1       -0.0003
     36 C          64.7852   92.5447   10.1325 C.ar    1  UNL1       -0.0001
     37 C          63.5823   91.6674    9.9505 C.ar    1  UNL1        0.0035
     38 C          63.0326   90.8974   11.1145 C.ar    1  UNL1        0.0675
     39 C          61.8296   90.0200   10.9326 C.3     1  UNL1        0.4183
     40 F          60.6268   89.1426   10.7507 F       1  UNL1       -0.1659
     41 F          62.7053   88.9337   10.3821 F       1  UNL1       -0.1659
     42 F          60.9540   91.1063   11.4831 F       1  UNL1       -0.1659
@<TRIPOS>BOND
     1     7     8    1
     2     8     9    1
     3     8    10    1
     4     8     6    1
     5     6     2    1
     6     2     3    2
     7     2     4   am
     8     4     1    1
     9     1    32    1
    10    32    33    1
    11    33    34   ar
    12    34    35   ar
    13    35    36   ar
    14    36    37   ar
    15    37    38   ar
    16    38    39    1
    17    39    40    1
    18    39    41    1
    19    39    42    1
    20     1    11    1
    21    11    12    2
    22    11    13   am
    23    13    15    1
    24    15    16    1
    25    16    17   ar
    26    17    18   ar
    27    18    19   ar
    28    19    20   ar
    29    20    21   ar
    30    21    22   ar
    31    22    23   ar
    32    23    24   ar
    33    24    25    1
    34    25    26    1
    35    26    27   ar
    36    27    28   ar
    37    28    29   ar
    38    29    30   ar
    39    30    31   ar
    40    38    33   ar
    41    24    16   ar
    42    31    26   ar
    43    23    18   ar
    44     4     5    1
    45    13    14    1
@<TRIPOS>MOLECULE
*****
 42 45 0 0 0
SMALL
GASTEIGER

@<TRIPOS>ATOM
      1 C          62.3272   86.2677   11.7522 C.3     1  UNL1        0.1554
      2 C          61.6292   86.3817    9.2522 C.2     1  UNL1        0.4017
      3 O          62.2606   87.7375    9.1378 O.2     1  UNL1       -0.2264
      4 N          61.6625   85.6467   10.5595 N.am    1  UNL1       -0.2637
      5 H          61.2481   84.7569   10.6346 H       1  UNL1        0.1532
      6 O          60.9646   85.7608    8.0595 O.3     1  UNL1       -0.4419
      7 C          63.0050   85.2027    7.9010 C.3     1  UNL1        0.0437
      8 C          61.7807   84.9972    7.0590 C.3     1  UNL1        0.1378
      9 C          60.5564   84.7918    6.2171 C.3     1  UNL1        0.0437
     10 C          62.5969   84.2337    6.0586 C.3     1  UNL1        0.0437
     11 C          62.0865   87.7121   12.0776 C.2     1  UNL1        0.2411
     12 O          60.7273   88.3114   11.8695 O.2     1  UNL1       -0.2733
     13 N          63.2051   88.5571   12.6112 N.am    1  UNL1       -0.2966
     14 H          64.0972   88.1637   12.7478 H       1  UNL1        0.1499
     15 C          62.9645   90.0014   12.9366 C.3     1  UNL1        0.1543
     16 C          64.0709   90.8351   13.5118 C.ar    1  UNL1        0.1418
     17 N          64.4803   90.8831   14.9541 N.ar    1  UNL1       -0.2276
     18 C          65.6246   91.8448   15.0794 C.ar    1  UNL1        0.1167
     19 C          66.4338   92.2935   16.2599 C.ar    1  UNL1        0.0238
     20 C          67.5410   93.2886   16.0756 C.ar    1  UNL1        0.0223
     21 C          67.8389   93.8349   14.7108 C.ar    1  UNL1        0.1006
     22 N          67.0297   93.3861   13.5303 N.ar    1  UNL1       -0.2252
     23 C          65.9226   92.3910   13.7145 C.ar    1  UNL1        0.1627
     24 N          64.9624   91.7670   12.7458 N.ar    1  UNL1       -0.2947
     25 C          64.9038   92.0290   11.2700 C.3     1  UNL1        0.1354
     26 C          65.9118   92.9359   10.6286 C.ar    1  UNL1        0.0005
     27 C          67.1698   92.3650   10.0441 C.ar    1  UNL1       -0.0024
     28 C          68.1778   93.2719    9.4028 C.ar    1  UNL1       -0.0003
     29 C          67.9278   94.7499    9.3459 C.ar    1  UNL1       -0.0000
     30 C          66.6699   95.3208    9.9304 C.ar    1  UNL1       -0.0003
     31 C          65.6619   94.4139   10.5717 C.ar    1  UNL1       -0.0024
     32 C          63.2325   85.4442   12.6196 C.3     1  UNL1        0.0553
     33 C          63.0238   83.9627   12.7280 C.ar    1  UNL1       -0.0161
     34 C          63.0840   83.1049   11.4991 C.ar    1  UNL1       -0.0042
     35 C          62.8752   81.6235   11.6076 C.ar    1  UNL1       -0.0003
     36 C          62.6063   80.9999   12.9451 C.ar    1  UNL1       -0.0001
     37 C          62.5461   81.8578   14.1741 C.ar    1  UNL1        0.0035
     38 C          62.7548   83.3392   14.0655 C.ar    1  UNL1        0.0675
     39 C          62.6946   84.1972   15.2945 C.3     1  UNL1        0.4183
     40 F          62.6345   85.0551   16.5235 F       1  UNL1       -0.1659
     41 F          64.1508   83.9393   15.5458 F       1  UNL1       -0.1659
     42 F          61.2385   84.4550   15.0432 F       1  UNL1       -0.1659
@<TRIPOS>BOND
     1     7     8    1
     2     8     9    1
     3     8    10    1
     4     8     6    1
     5     6     2    1
     6     2     3    2
     7     2     4   am
     8     4     1    1
     9     1    32    1
    10    32    33    1
    11    33    34   ar
    12    34    35   ar
    13    35    36   ar
    14    36    37   ar
    15    37    38   ar
    16    38    39    1
    17    39    40    1
    18    39    41    1
    19    39    42    1
    20     1    11    1
    21    11    12    2
    22    11    13   am
    23    13    15    1
    24    15    16    1
    25    16    17   ar
    26    17    18   ar
    27    18    19   ar
    28    19    20   ar
    29    20    21   ar
    30    21    22   ar
    31    22    23   ar
    32    23    24   ar
    33    24    25    1
    34    25    26    1
    35    26    27   ar
    36    27    28   ar
    37    28    29   ar
    38    29    30   ar
    39    30    31   ar
    40    38    33   ar
    41    24    16   ar
    42    31    26   ar
    43    23    18   ar
    44     4     5    1
    45    13    14    1
@<TRIPOS>MOLECULE
*****
 42 45 0 0 0
SMALL
GASTEIGER

@<TRIPOS>ATOM
      1 C          62.5866   87.4784   11.7011 C.3     1  UNL1        0.1554
      2 C          62.8063   85.1200   12.7687 C.2     1  UNL1        0.4017
      3 O          64.2918   85.3028   12.8668 O.2     1  UNL1       -0.2264
      4 N          61.9536   86.2079   12.1858 N.am    1  UNL1       -0.2637
      5 H          60.9786   86.0880   12.1215 H       1  UNL1        0.1532
      6 O          62.1733   83.8495   13.2535 O.3     1  UNL1       -0.4419
      7 C          63.2474   82.8971   14.8152 C.3     1  UNL1        0.0437
      8 C          62.9935   82.5989   13.3672 C.3     1  UNL1        0.1378
      9 C          62.7397   82.3006   11.9193 C.3     1  UNL1        0.0437
     10 C          63.8139   81.3482   13.4811 C.3     1  UNL1        0.0437
     11 C          62.8724   88.5901   12.6669 C.2     1  UNL1        0.2411
     12 O          63.5131   88.2885   13.9892 O.2     1  UNL1       -0.2733
     13 N          62.5174   90.0032   12.3103 N.am    1  UNL1       -0.2966
     14 H          62.0969   90.2010   11.4424 H       1  UNL1        0.1499
     15 C          62.8031   91.1147   13.2761 C.3     1  UNL1        0.1543
     16 C          64.2180   91.4235   13.6670 C.ar    1  UNL1        0.1418
     17 N          64.7812   91.3670   15.0561 N.ar    1  UNL1       -0.2276
     18 C          66.2294   91.7515   14.9852 C.ar    1  UNL1        0.1167
     19 C          67.2887   91.8718   16.0402 C.ar    1  UNL1        0.0238
     20 C          68.6799   92.2862   15.6623 C.ar    1  UNL1        0.0223
     21 C          69.0117   92.5802   14.2293 C.ar    1  UNL1        0.1006
     22 N          67.9524   92.4599   13.1743 N.ar    1  UNL1       -0.2252
     23 C          66.5612   92.0456   13.5522 C.ar    1  UNL1        0.1627
     24 N          65.3181   91.8428   12.7376 N.ar    1  UNL1       -0.2947
     25 C          65.1965   92.0271   11.2539 C.3     1  UNL1        0.1354
     26 C          66.0674   93.0235   10.5480 C.ar    1  UNL1        0.0005
     27 C          65.7109   94.4805   10.5711 C.ar    1  UNL1       -0.0024
     28 C          66.5818   95.4770    9.8652 C.ar    1  UNL1       -0.0003
     29 C          67.8093   95.0167    9.1360 C.ar    1  UNL1       -0.0000
     30 C          68.1657   93.5599    9.1129 C.ar    1  UNL1       -0.0003
     31 C          67.2948   92.5633    9.8188 C.ar    1  UNL1       -0.0024
     32 C          62.9339   87.6374   10.2505 C.3     1  UNL1        0.0553
     33 C          62.1461   86.9036    9.2059 C.ar    1  UNL1       -0.0161
     34 C          62.7385   85.7067    8.5230 C.ar    1  UNL1       -0.0042
     35 C          61.9508   84.9730    7.4785 C.ar    1  UNL1       -0.0003
     36 C          60.5707   85.4362    7.1169 C.ar    1  UNL1       -0.0001
     37 C          59.9783   86.6331    7.7998 C.ar    1  UNL1        0.0035
     38 C          60.7660   87.3668    8.8443 C.ar    1  UNL1        0.0675
     39 C          60.1737   88.5638    9.5273 C.3     1  UNL1        0.4183
     40 F          59.5813   89.7607   10.2103 F       1  UNL1       -0.1659
     41 F          59.5889   87.6724   10.5824 F       1  UNL1       -0.1659
     42 F          60.7585   89.4553    8.4722 F       1  UNL1       -0.1659
@<TRIPOS>BOND
     1     7     8    1
     2     8     9    1
     3     8    10    1
     4     8     6    1
     5     6     2    1
     6     2     3    2
     7     2     4   am
     8     4     1    1
     9     1    32    1
    10    32    33    1
    11    33    34   ar
    12    34    35   ar
    13    35    36   ar
    14    36    37   ar
    15    37    38   ar
    16    38    39    1
    17    39    40    1
    18    39    41    1
    19    39    42    1
    20     1    11    1
    21    11    12    2
    22    11    13   am
    23    13    15    1
    24    15    16    1
    25    16    17   ar
    26    17    18   ar
    27    18    19   ar
    28    19    20   ar
    29    20    21   ar
    30    21    22   ar
    31    22    23   ar
    32    23    24   ar
    33    24    25    1
    34    25    26    1
    35    26    27   ar
    36    27    28   ar
    37    28    29   ar
    38    29    30   ar
    39    30    31   ar
    40    38    33   ar
    41    24    16   ar
    42    31    26   ar
    43    23    18   ar
    44     4     5    1
    45    13    14    1
