@<TRIPOS>MOLECULE
*****
 31 34 0 0 0
SMALL
GASTEIGER

@<TRIPOS>ATOM
      1 C          62.0132   84.7884   16.0605 C.3     1  UNL1        0.0942
      2 N          62.6630   83.7576   15.1858 N.pl3   1  UNL1       -0.3039
      3 H          63.0076   82.9240   15.5801 H       1  UNL1        0.1496
      4 C          62.7876   83.9969   13.7102 C.ar    1  UNL1        0.2002
      5 N          62.0573   85.1409   13.0715 N.ar    1  UNL1       -0.2150
      6 C          62.1820   85.3802   11.5960 C.ar    1  UNL1        0.0895
      7 C          61.4517   86.5241   10.9573 C.ar    1  UNL1        0.0307
      8 C          61.5764   86.7634    9.4818 C.ar    1  UNL1        0.0592
      9 CL         60.8460   87.9074    8.8431 Cl      1  UNL1       -0.0822
     10 C          62.4314   85.8587    8.6450 C.ar    1  UNL1        0.0116
     11 C          63.1618   84.7147    9.2836 C.ar    1  UNL1        0.0071
     12 C          63.0370   84.4754   10.7591 C.ar    1  UNL1        0.0740
     13 C          63.7674   83.3314   11.3978 C.ar    1  UNL1        0.2643
     14 O          64.6225   82.4267   10.5609 O.2     1  UNL1       -0.2668
     15 N          63.6427   83.0922   12.8733 N.ar    1  UNL1       -0.2669
     16 C          64.3731   81.9482   13.5120 C.3     1  UNL1        0.1363
     17 C          62.8590   85.7415   16.8517 C.3     1  UNL1        0.0476
     18 C          64.4194   89.4970   14.9252 C.ar    1  UNL1       -0.0000
     19 C          64.7924   88.1563   14.3655 C.ar    1  UNL1       -0.0003
     20 C          64.2723   86.9044   15.0077 C.ar    1  UNL1       -0.0042
     21 C          63.3792   86.9934   16.2094 C.ar    1  UNL1       -0.0205
     22 C          63.0062   88.3341   16.7691 C.ar    1  UNL1       -0.0042
     23 C          63.5263   89.5860   16.1270 C.ar    1  UNL1       -0.0003
     24 C          65.9799   93.2526   12.9986 C.ar    1  UNL1        0.1387
     25 C          66.4089   92.8889   14.3893 C.ar    1  UNL1        0.0369
     26 C          65.8888   91.6371   15.0314 C.ar    1  UNL1        0.0031
     27 C          64.9396   90.7489   14.2830 C.ar    1  UNL1        0.0002
     28 C          64.5105   91.1125   12.8924 C.ar    1  UNL1        0.0031
     29 C          65.0307   92.3643   12.2502 C.ar    1  UNL1        0.0369
     30 C          65.9883   94.9254   11.0108 C.3     1  UNL1        0.2525
     31 O          66.5000   94.5044   12.3565 O.3     1  UNL1       -0.4714
@<TRIPOS>BOND
     1    30    31    1
     2    31    24    1
     3    24    25   ar
     4    25    26   ar
     5    26    27   ar
     6    27    18    1
     7    18    19   ar
     8    19    20   ar
     9    20    21   ar
    10    21    17    1
    11    17     1    1
    12     1     2    1
    13     2     4    1
    14     4     5   ar
    15     5     6   ar
    16     6     7   ar
    17     7     8   ar
    18     8     9    1
    19     8    10   ar
    20    10    11   ar
    21    11    12   ar
    22    12    13   ar
    23    13    14    2
    24    13    15   ar
    25    15    16    1
    26    21    22   ar
    27    22    23   ar
    28    27    28   ar
    29    28    29   ar
    30    29    24   ar
    31    23    18   ar
    32    15     4   ar
    33    12     6   ar
    34     2     3    1
@<TRIPOS>MOLECULE
*****
 31 34 0 0 0
SMALL
GASTEIGER

@<TRIPOS>ATOM
      1 C          60.0125   89.7348   10.5524 C.3     1  UNL1        0.0942
      2 N          59.5762   88.3018   10.6311 N.pl3   1  UNL1       -0.3039
      3 H          58.6329   88.0836   10.8098 H       1  UNL1        0.1496
      4 C          60.5770   87.2013   10.4376 C.ar    1  UNL1        0.2002
      5 N          61.2515   86.5834   11.6263 N.ar    1  UNL1       -0.2150
      6 C          62.2523   85.4829   11.4328 C.ar    1  UNL1        0.0895
      7 C          62.9268   84.8649   12.6216 C.ar    1  UNL1        0.0307
      8 C          63.9275   83.7645   12.4280 C.ar    1  UNL1        0.0592
      9 CL         64.6021   83.1465   13.6168 Cl      1  UNL1       -0.0822
     10 C          64.2538   83.2820   11.0457 C.ar    1  UNL1        0.0116
     11 C          63.5793   83.8999    9.8570 C.ar    1  UNL1        0.0071
     12 C          62.5785   85.0004   10.0505 C.ar    1  UNL1        0.0740
     13 C          61.9040   85.6184    8.8617 C.ar    1  UNL1        0.2643
     14 O          62.2302   85.1359    7.4794 O.2     1  UNL1       -0.2668
     15 N          60.9032   86.7188    9.0553 N.ar    1  UNL1       -0.2669
     16 C          60.2287   87.3368    7.8665 C.3     1  UNL1        0.1363
     17 C          61.3514   90.0802    9.9710 C.3     1  UNL1        0.0476
     18 C          64.7141   91.3632   12.6720 C.ar    1  UNL1       -0.0000
     19 C          64.6095   91.9259   11.2855 C.ar    1  UNL1       -0.0003
     20 C          63.4886   91.4982   10.3851 C.ar    1  UNL1       -0.0042
     21 C          62.4723   90.5079   10.8713 C.ar    1  UNL1       -0.0205
     22 C          62.5770   89.9452   12.2579 C.ar    1  UNL1       -0.0042
     23 C          63.6978   90.3729   13.1582 C.ar    1  UNL1       -0.0003
     24 C          68.0770   92.6464   15.3730 C.ar    1  UNL1        0.1387
     25 C          68.3608   92.2689   13.9493 C.ar    1  UNL1        0.0369
     26 C          67.2399   91.8412   13.0490 C.ar    1  UNL1        0.0031
     27 C          65.8351   91.7910   13.5724 C.ar    1  UNL1        0.0002
     28 C          65.5512   92.1685   14.9960 C.ar    1  UNL1        0.0031
     29 C          66.6721   92.5962   15.8964 C.ar    1  UNL1        0.0369
     30 C          69.5879   94.5205   16.3501 C.3     1  UNL1        0.2525
     31 O          69.1979   93.0741   16.2733 O.3     1  UNL1       -0.4714
@<TRIPOS>BOND
     1    30    31    1
     2    31    24    1
     3    24    25   ar
     4    25    26   ar
     5    26    27   ar
     6    27    18    1
     7    18    19   ar
     8    19    20   ar
     9    20    21   ar
    10    21    17    1
    11    17     1    1
    12     1     2    1
    13     2     4    1
    14     4     5   ar
    15     5     6   ar
    16     6     7   ar
    17     7     8   ar
    18     8     9    1
    19     8    10   ar
    20    10    11   ar
    21    11    12   ar
    22    12    13   ar
    23    13    14    2
    24    13    15   ar
    25    15    16    1
    26    21    22   ar
    27    22    23   ar
    28    27    28   ar
    29    28    29   ar
    30    29    24   ar
    31    23    18   ar
    32    15     4   ar
    33    12     6   ar
    34     2     3    1
@<TRIPOS>MOLECULE
*****
 31 34 0 0 0
SMALL
GASTEIGER

@<TRIPOS>ATOM
      1 C          62.7456   88.7983   16.9029 C.3     1  UNL1        0.0942
      2 N          63.6009   89.9331   16.4228 N.pl3   1  UNL1       -0.3039
      3 H          64.1552   90.4364   17.0621 H       1  UNL1        0.1496
      4 C          63.6117   90.3012   14.9686 C.ar    1  UNL1        0.2002
      5 N          62.5819   89.7263   14.0418 N.ar    1  UNL1       -0.2150
      6 C          62.5928   90.0943   12.5877 C.ar    1  UNL1        0.0895
      7 C          61.5630   89.5195   11.6609 C.ar    1  UNL1        0.0307
      8 C          61.5738   89.8875   10.2068 C.ar    1  UNL1        0.0592
      9 CL         60.5440   89.3127    9.2799 Cl      1  UNL1       -0.0822
     10 C          62.6145   90.8304    9.6795 C.ar    1  UNL1        0.0116
     11 C          63.6443   91.4052   10.6063 C.ar    1  UNL1        0.0071
     12 C          63.6334   91.0372   12.0604 C.ar    1  UNL1        0.0740
     13 C          64.6633   91.6121   12.9873 C.ar    1  UNL1        0.2643
     14 O          65.7039   92.5549   12.4600 O.2     1  UNL1       -0.2668
     15 N          64.6524   91.2440   14.4414 N.ar    1  UNL1       -0.2669
     16 C          65.6822   91.8189   15.3683 C.3     1  UNL1        0.1363
     17 C          63.3626   87.4597   17.1811 C.3     1  UNL1        0.0476
     18 C          63.2662   84.2407   14.0382 C.ar    1  UNL1       -0.0000
     19 C          64.1837   85.4167   13.8794 C.ar    1  UNL1       -0.0003
     20 C          64.2159   86.4897   14.9270 C.ar    1  UNL1       -0.0042
     21 C          63.3305   86.3867   16.1334 C.ar    1  UNL1       -0.0205
     22 C          62.4130   85.2107   16.2922 C.ar    1  UNL1       -0.0042
     23 C          62.3808   84.1377   15.2446 C.ar    1  UNL1       -0.0003
     24 C          63.1699   81.0216   10.8951 C.ar    1  UNL1        0.1387
     25 C          62.5647   80.7707   12.2445 C.ar    1  UNL1        0.0369
     26 C          62.5968   81.8437   13.2922 C.ar    1  UNL1        0.0031
     27 C          63.2341   83.1676   12.9905 C.ar    1  UNL1        0.0002
     28 C          63.8393   83.4185   11.6411 C.ar    1  UNL1        0.0031
     29 C          63.8072   82.3455   10.5934 C.ar    1  UNL1        0.0369
     30 C          62.7709   78.5437   10.2238 C.3     1  UNL1        0.2525
     31 O          63.1378   79.9486    9.8475 O.3     1  UNL1       -0.4714
@<TRIPOS>BOND
     1    30    31    1
     2    31    24    1
     3    24    25   ar
     4    25    26   ar
     5    26    27   ar
     6    27    18    1
     7    18    19   ar
     8    19    20   ar
     9    20    21   ar
    10    21    17    1
    11    17     1    1
    12     1     2    1
    13     2     4    1
    14     4     5   ar
    15     5     6   ar
    16     6     7   ar
    17     7     8   ar
    18     8     9    1
    19     8    10   ar
    20    10    11   ar
    21    11    12   ar
    22    12    13   ar
    23    13    14    2
    24    13    15   ar
    25    15    16    1
    26    21    22   ar
    27    22    23   ar
    28    27    28   ar
    29    28    29   ar
    30    29    24   ar
    31    23    18   ar
    32    15     4   ar
    33    12     6   ar
    34     2     3    1
@<TRIPOS>MOLECULE
*****
 31 34 0 0 0
SMALL
GASTEIGER

@<TRIPOS>ATOM
      1 C          60.1435   87.6395    9.6344 C.3     1  UNL1        0.0942
      2 N          61.3761   86.9311    9.1558 N.pl3   1  UNL1       -0.3039
      3 H          61.7397   87.1255    8.2619 H       1  UNL1        0.1496
      4 C          62.0546   85.9266   10.0394 C.ar    1  UNL1        0.2002
      5 N          61.8406   85.9673   11.5234 N.ar    1  UNL1       -0.2150
      6 C          62.5191   84.9628   12.4069 C.ar    1  UNL1        0.0895
      7 C          62.3050   85.0035   13.8910 C.ar    1  UNL1        0.0307
      8 C          62.9836   83.9990   14.7744 C.ar    1  UNL1        0.0592
      9 CL         62.7695   84.0397   16.2586 Cl      1  UNL1       -0.0822
     10 C          63.8762   82.9537   14.1738 C.ar    1  UNL1        0.0116
     11 C          64.0902   82.9130   12.6898 C.ar    1  UNL1        0.0071
     12 C          63.4117   83.9175   11.8063 C.ar    1  UNL1        0.0740
     13 C          63.6258   83.8769   10.3222 C.ar    1  UNL1        0.2643
     14 O          64.5184   82.8316    9.7216 O.2     1  UNL1       -0.2668
     15 N          62.9472   84.8814    9.4387 N.ar    1  UNL1       -0.2669
     16 C          63.1613   84.8407    7.9546 C.3     1  UNL1        0.1363
     17 C          60.1752   89.1195    9.8761 C.3     1  UNL1        0.0476
     18 C          63.6509   90.9697   12.0548 C.ar    1  UNL1       -0.0000
     19 C          63.4477   91.2466   10.5947 C.ar    1  UNL1       -0.0003
     20 C          62.2892   90.6299    9.8684 C.ar    1  UNL1       -0.0042
     21 C          61.3338   89.7363   10.6023 C.ar    1  UNL1       -0.0205
     22 C          61.5370   89.4593   12.0624 C.ar    1  UNL1       -0.0042
     23 C          62.6955   90.0760   12.7887 C.ar    1  UNL1       -0.0003
     24 C          67.1266   92.8199   14.2335 C.ar    1  UNL1        0.1387
     25 C          66.6169   93.4433   12.9678 C.ar    1  UNL1        0.0369
     26 C          65.4584   92.8265   12.2416 C.ar    1  UNL1        0.0031
     27 C          64.8095   91.5864   12.7810 C.ar    1  UNL1        0.0002
     28 C          65.3190   90.9630   14.0466 C.ar    1  UNL1        0.0031
     29 C          66.4776   91.5798   14.7729 C.ar    1  UNL1        0.0369
     30 C          68.9528   92.6910   16.0768 C.3     1  UNL1        0.2525
     31 O          68.2851   93.4367   14.9596 O.3     1  UNL1       -0.4714
@<TRIPOS>BOND
     1    30    31    1
     2    31    24    1
     3    24    25   ar
     4    25    26   ar
     5    26    27   ar
     6    27    18    1
     7    18    19   ar
     8    19    20   ar
     9    20    21   ar
    10    21    17    1
    11    17     1    1
    12     1     2    1
    13     2     4    1
    14     4     5   ar
    15     5     6   ar
    16     6     7   ar
    17     7     8   ar
    18     8     9    1
    19     8    10   ar
    20    10    11   ar
    21    11    12   ar
    22    12    13   ar
    23    13    14    2
    24    13    15   ar
    25    15    16    1
    26    21    22   ar
    27    22    23   ar
    28    27    28   ar
    29    28    29   ar
    30    29    24   ar
    31    23    18   ar
    32    15     4   ar
    33    12     6   ar
    34     2     3    1
@<TRIPOS>MOLECULE
*****
 31 34 0 0 0
SMALL
GASTEIGER

@<TRIPOS>ATOM
      1 C          64.2455   83.0404   13.6343 C.3     1  UNL1        0.0942
      2 N          65.1436   84.0126   14.3403 N.pl3   1  UNL1       -0.3039
      3 H          66.1105   83.8368   14.3982 H       1  UNL1        0.1496
      4 C          64.5684   85.2525   14.9581 C.ar    1  UNL1        0.2002
      5 N          65.0022   86.6035   14.4717 N.ar    1  UNL1       -0.2150
      6 C          64.4270   87.8435   15.0895 C.ar    1  UNL1        0.0895
      7 C          64.8609   89.1944   14.6031 C.ar    1  UNL1        0.0307
      8 C          64.2856   90.4343   15.2209 C.ar    1  UNL1        0.0592
      9 CL         64.7195   91.7853   14.7345 Cl      1  UNL1       -0.0822
     10 C          63.2766   90.3232   16.3252 C.ar    1  UNL1        0.0116
     11 C          62.8427   88.9723   16.8116 C.ar    1  UNL1        0.0071
     12 C          63.4179   87.7324   16.1938 C.ar    1  UNL1        0.0740
     13 C          62.9841   86.3813   16.6802 C.ar    1  UNL1        0.2643
     14 O          61.9750   86.2703   17.7845 O.2     1  UNL1       -0.2668
     15 N          63.5593   85.1415   16.0624 N.ar    1  UNL1       -0.2669
     16 C          63.1254   83.7904   16.5488 C.3     1  UNL1        0.1363
     17 C          64.2447   82.9723   12.1359 C.3     1  UNL1        0.0476
     18 C          61.7935   85.8979    9.7520 C.ar    1  UNL1       -0.0000
     19 C          62.7804   85.0061    9.0586 C.ar    1  UNL1       -0.0003
     20 C          63.5974   84.0309    9.8532 C.ar    1  UNL1       -0.0042
     21 C          63.4276   83.9475   11.3412 C.ar    1  UNL1       -0.0205
     22 C          62.4407   84.8393   12.0346 C.ar    1  UNL1       -0.0042
     23 C          61.6237   85.8145   11.2400 C.ar    1  UNL1       -0.0003
     24 C          59.3424   88.8234    7.3679 C.ar    1  UNL1        0.1387
     25 C          59.3074   87.3629    7.0275 C.ar    1  UNL1        0.0369
     26 C          60.1244   86.3878    7.8221 C.ar    1  UNL1        0.0031
     27 C          60.9765   86.8731    8.9573 C.ar    1  UNL1        0.0002
     28 C          61.0115   88.3335    9.2978 C.ar    1  UNL1        0.0031
     29 C          60.1944   89.3087    8.5031 C.ar    1  UNL1        0.0369
     30 C          59.1808   90.6457    5.5232 C.3     1  UNL1        0.2525
     31 O          58.5253   89.7985    6.5733 O.3     1  UNL1       -0.4714
@<TRIPOS>BOND
     1    30    31    1
     2    31    24    1
     3    24    25   ar
     4    25    26   ar
     5    26    27   ar
     6    27    18    1
     7    18    19   ar
     8    19    20   ar
     9    20    21   ar
    10    21    17    1
    11    17     1    1
    12     1     2    1
    13     2     4    1
    14     4     5   ar
    15     5     6   ar
    16     6     7   ar
    17     7     8   ar
    18     8     9    1
    19     8    10   ar
    20    10    11   ar
    21    11    12   ar
    22    12    13   ar
    23    13    14    2
    24    13    15   ar
    25    15    16    1
    26    21    22   ar
    27    22    23   ar
    28    27    28   ar
    29    28    29   ar
    30    29    24   ar
    31    23    18   ar
    32    15     4   ar
    33    12     6   ar
    34     2     3    1
@<TRIPOS>MOLECULE
*****
 31 34 0 0 0
SMALL
GASTEIGER

@<TRIPOS>ATOM
      1 C          63.1161   88.5560   17.0840 C.3     1  UNL1        0.0942
      2 N          62.7650   89.0031   15.6960 N.pl3   1  UNL1       -0.3039
      3 H          61.9700   88.6352   15.2467 H       1  UNL1        0.1496
      4 C          63.6251   90.0107   14.9924 C.ar    1  UNL1        0.2002
      5 N          64.6918   90.7451   15.7492 N.ar    1  UNL1       -0.2150
      6 C          65.5519   91.7528   15.0456 C.ar    1  UNL1        0.0895
      7 C          66.6186   92.4871   15.8024 C.ar    1  UNL1        0.0307
      8 C          67.4786   93.4947   15.0988 C.ar    1  UNL1        0.0592
      9 CL         68.5454   94.2292   15.8556 Cl      1  UNL1       -0.0822
     10 C          67.2719   93.7680   13.6385 C.ar    1  UNL1        0.0116
     11 C          66.2052   93.0336   12.8817 C.ar    1  UNL1        0.0071
     12 C          65.3452   92.0260   13.5853 C.ar    1  UNL1        0.0740
     13 C          64.2784   91.2916   12.8285 C.ar    1  UNL1        0.2643
     14 O          64.0717   91.5648   11.3681 O.2     1  UNL1       -0.2668
     15 N          63.4184   90.2840   13.5320 N.ar    1  UNL1       -0.2669
     16 C          62.3516   89.5496   12.7753 C.3     1  UNL1        0.1363
     17 C          63.1006   87.0962   17.4282 C.3     1  UNL1        0.0476
     18 C          63.1402   84.0115   14.1520 C.ar    1  UNL1       -0.0000
     19 C          64.2612   85.0018   14.2633 C.ar    1  UNL1       -0.0003
     20 C          64.2481   86.0300   15.3553 C.ar    1  UNL1       -0.0042
     21 C          63.1138   86.0679   16.3361 C.ar    1  UNL1       -0.0205
     22 C          61.9927   85.0776   16.2248 C.ar    1  UNL1       -0.0042
     23 C          62.0059   84.0493   15.1328 C.ar    1  UNL1       -0.0003
     24 C          63.1799   80.9268   10.8758 C.ar    1  UNL1        0.1387
     25 C          63.6276   82.3298   10.5905 C.ar    1  UNL1        0.0369
     26 C          63.6143   83.3580   11.6826 C.ar    1  UNL1        0.0031
     27 C          63.1534   82.9832   13.0599 C.ar    1  UNL1        0.0002
     28 C          62.7057   81.5803   13.3452 C.ar    1  UNL1        0.0031
     29 C          62.7189   80.5521   12.2531 C.ar    1  UNL1        0.0369
     30 C          62.7261   78.5010   10.0637 C.3     1  UNL1        0.2525
     31 O          63.1931   79.8987    9.7837 O.3     1  UNL1       -0.4714
@<TRIPOS>BOND
     1    30    31    1
     2    31    24    1
     3    24    25   ar
     4    25    26   ar
     5    26    27   ar
     6    27    18    1
     7    18    19   ar
     8    19    20   ar
     9    20    21   ar
    10    21    17    1
    11    17     1    1
    12     1     2    1
    13     2     4    1
    14     4     5   ar
    15     5     6   ar
    16     6     7   ar
    17     7     8   ar
    18     8     9    1
    19     8    10   ar
    20    10    11   ar
    21    11    12   ar
    22    12    13   ar
    23    13    14    2
    24    13    15   ar
    25    15    16    1
    26    21    22   ar
    27    22    23   ar
    28    27    28   ar
    29    28    29   ar
    30    29    24   ar
    31    23    18   ar
    32    15     4   ar
    33    12     6   ar
    34     2     3    1
@<TRIPOS>MOLECULE
*****
 31 34 0 0 0
SMALL
GASTEIGER

@<TRIPOS>ATOM
      1 C          59.3007   89.9377    5.7607 C.3     1  UNL1        0.0942
      2 N          60.5748   90.7243    5.6714 N.pl3   1  UNL1       -0.3039
      3 H          61.2030   90.7315    6.4294 H       1  UNL1        0.1496
      4 C          60.8917   91.4999    4.4272 C.ar    1  UNL1        0.2002
      5 N          62.3028   91.5640    3.9224 N.ar    1  UNL1       -0.2150
      6 C          62.6197   92.3396    2.6782 C.ar    1  UNL1        0.0895
      7 C          64.0308   92.4037    2.1734 C.ar    1  UNL1        0.0307
      8 C          64.3477   93.1793    0.9292 C.ar    1  UNL1        0.0592
      9 CL         65.7588   93.2434    0.4244 Cl      1  UNL1       -0.0822
     10 C          63.2536   93.8908    0.1899 C.ar    1  UNL1        0.0116
     11 C          61.8425   93.8267    0.6946 C.ar    1  UNL1        0.0071
     12 C          61.5256   93.0511    1.9388 C.ar    1  UNL1        0.0740
     13 C          60.1145   92.9870    2.4436 C.ar    1  UNL1        0.2643
     14 O          59.0204   93.6984    1.7042 O.2     1  UNL1       -0.2668
     15 N          59.7976   92.2114    3.6878 N.ar    1  UNL1       -0.2669
     16 C          58.3865   92.1472    4.1926 C.3     1  UNL1        0.1363
     17 C          58.8309   89.4192    7.0875 C.3     1  UNL1        0.0476
     18 C          61.3246   86.4314    9.3467 C.ar    1  UNL1       -0.0000
     19 C          61.4039   87.8888    9.6927 C.ar    1  UNL1       -0.0003
     20 C          60.5726   88.8847    8.9397 C.ar    1  UNL1       -0.0042
     21 C          59.6622   88.4233    7.8406 C.ar    1  UNL1       -0.0205
     22 C          59.5829   86.9659    7.4945 C.ar    1  UNL1       -0.0042
     23 C          60.4142   85.9699    8.2476 C.ar    1  UNL1       -0.0003
     24 C          63.8185   83.4435   11.6059 C.ar    1  UNL1        0.1387
     25 C          63.9525   83.5588   10.1163 C.ar    1  UNL1        0.0369
     26 C          63.1213   84.5547    9.3633 C.ar    1  UNL1        0.0031
     27 C          62.1559   85.4354   10.0998 C.ar    1  UNL1        0.0002
     28 C          62.0218   85.3202   11.5893 C.ar    1  UNL1        0.0031
     29 C          62.8531   84.3243   12.3424 C.ar    1  UNL1        0.0369
     30 C          64.0009   81.5218   13.3447 C.3     1  UNL1        0.2525
     31 O          64.6497   82.4476   12.3589 O.3     1  UNL1       -0.4714
@<TRIPOS>BOND
     1    30    31    1
     2    31    24    1
     3    24    25   ar
     4    25    26   ar
     5    26    27   ar
     6    27    18    1
     7    18    19   ar
     8    19    20   ar
     9    20    21   ar
    10    21    17    1
    11    17     1    1
    12     1     2    1
    13     2     4    1
    14     4     5   ar
    15     5     6   ar
    16     6     7   ar
    17     7     8   ar
    18     8     9    1
    19     8    10   ar
    20    10    11   ar
    21    11    12   ar
    22    12    13   ar
    23    13    14    2
    24    13    15   ar
    25    15    16    1
    26    21    22   ar
    27    22    23   ar
    28    27    28   ar
    29    28    29   ar
    30    29    24   ar
    31    23    18   ar
    32    15     4   ar
    33    12     6   ar
    34     2     3    1
