@<TRIPOS>MOLECULE
*****
 37 40 0 0 0
SMALL
GASTEIGER

@<TRIPOS>ATOM
      1 O          62.2667   88.5990   12.5772 O.3     1  UNL1       -0.4529
      2 C          63.2228   89.7336   12.3570 C.ar    1  UNL1        0.1580
      3 C          64.2262   90.0850   13.4153 C.ar    1  UNL1        0.0694
      4 C          65.1823   91.2196   13.1951 C.ar    1  UNL1        0.1620
      5 F          66.1857   91.5710   14.2533 F       1  UNL1       -0.2026
      6 C          65.1350   92.0029   11.9166 C.ar    1  UNL1        0.1535
      7 C          64.1317   91.6515   10.8585 C.ar    1  UNL1        0.0370
      8 C          63.1756   90.5168   11.0787 C.ar    1  UNL1        0.0936
      9 CL         62.1722   90.1655   10.0204 Cl      1  UNL1       -0.0790
     10 S          66.0911   93.1375   11.6964 S.O2    1  UNL1        0.0773
     11 O          66.5859   92.4774   10.4436 O.2     1  UNL1       -0.1498
     12 O          65.5964   93.7975   12.9493 O.2     1  UNL1       -0.1498
     13 N          67.0472   94.2721   11.4762 N.pl3   1  UNL1       -0.1922
     14 H          67.7932   94.4158   12.1025 H       1  UNL1        0.1758
     15 C          66.8668   95.1878   10.3019 C.ar    1  UNL1        0.2010
     16 N          67.7910   95.3067    9.1264 N.ar    1  UNL1       -0.1241
     17 N          67.2259   96.3376    8.1949 N.ar    1  UNL1       -0.1374
     18 C          65.9524   96.8559    8.7947 C.ar    1  UNL1        0.1605
     19 S          65.7305   96.1453   10.0969 S.2     1  UNL1       -0.0272
     20 C          62.3931   86.2310   11.5157 C.ar    1  UNL1        0.0294
     21 C          62.8988   84.8192   11.5459 C.ar    1  UNL1        0.0035
     22 C          63.7840   84.3635   12.6678 C.ar    1  UNL1        0.0713
     23 C          64.1634   85.3196   13.7595 C.ar    1  UNL1        0.0070
     24 C          63.6577   86.7314   13.7294 C.ar    1  UNL1        0.0371
     25 C          62.7725   87.1871   12.6075 C.ar    1  UNL1        0.1422
     26 N          59.6504   87.9727   11.8225 N.pl3   1  UNL1       -0.2474
     27 C          60.2472   87.4873   10.5348 C.2     1  UNL1        0.3309
     28 N          59.6881   87.7173    9.1620 N.2     1  UNL1        0.0755
     29 N          60.6033   87.0589    8.1725 N.2     1  UNL1       -0.0367
     30 C          61.7279   86.4220    8.9338 C.2     1  UNL1        0.1389
     31 C          61.5078   86.6868   10.3937 C.3     1  UNL1        0.1779
     32 H          58.8153   88.4940   11.8123 H       1  UNL1        0.2882
     33 H          60.0938   87.7700   12.6778 H       1  UNL1        0.2882
     34 C          64.2898   82.9516   12.6980 C.3     1  UNL1        0.4186
     35 F          64.7956   81.5398   12.7282 F       1  UNL1       -0.1659
     36 F          64.6893   83.0639   11.2566 F       1  UNL1       -0.1659
     37 F          63.8903   82.8393   14.1394 F       1  UNL1       -0.1659
@<TRIPOS>BOND
     1    26    27    1
     2    27    28    2
     3    28    29    1
     4    29    30    2
     5    30    31    1
     6    31    20    1
     7    20    21   ar
     8    21    22   ar
     9    22    34    1
    10    34    35    1
    11    34    36    1
    12    34    37    1
    13    22    23   ar
    14    23    24   ar
    15    24    25   ar
    16    25     1    1
    17     1     2    1
    18     2     3   ar
    19     3     4   ar
    20     4     5    1
    21     4     6   ar
    22     6    10    1
    23    10    11    2
    24    10    12    2
    25    10    13    1
    26    13    15    1
    27    15    16   ar
    28    16    17   ar
    29    17    18   ar
    30    18    19   ar
    31     6     7   ar
    32     7     8   ar
    33     8     9    1
    34    31    27    1
    35    25    20   ar
    36     8     2   ar
    37    19    15   ar
    38    26    32    1
    39    26    33    1
    40    13    14    1
@<TRIPOS>MOLECULE
*****
 37 40 0 0 0
SMALL
GASTEIGER

@<TRIPOS>ATOM
      1 O          62.1995   88.3069   12.8589 O.3     1  UNL1       -0.4529
      2 C          63.1523   89.4480   12.6587 C.ar    1  UNL1        0.1580
      3 C          63.0583   90.2958   11.4248 C.ar    1  UNL1        0.0694
      4 C          64.0111   91.4369   11.2245 C.ar    1  UNL1        0.1620
      5 F          63.9172   92.2847    9.9907 F       1  UNL1       -0.2026
      6 C          65.0579   91.7302   12.2582 C.ar    1  UNL1        0.1535
      7 C          65.1518   90.8824   13.4920 C.ar    1  UNL1        0.0370
      8 C          64.1990   89.7413   13.6923 C.ar    1  UNL1        0.0936
      9 CL         64.2929   88.8934   14.9262 Cl      1  UNL1       -0.0790
     10 S          66.0107   92.8713   12.0580 S.O2    1  UNL1        0.0773
     11 O          66.4714   92.2602   10.7679 O.2     1  UNL1       -0.1498
     12 O          65.5500   93.4823   13.3481 O.2     1  UNL1       -0.1498
     13 N          66.9635   94.0123   11.8578 N.pl3   1  UNL1       -0.1922
     14 H          67.6555   94.2000   12.5324 H       1  UNL1        0.1758
     15 C          66.8618   94.8676   10.6296 C.ar    1  UNL1        0.2010
     16 N          67.8486   94.9101    9.5007 N.ar    1  UNL1       -0.1241
     17 N          67.3523   95.8992    8.4881 N.ar    1  UNL1       -0.1374
     18 C          66.0587   96.4680    8.9913 C.ar    1  UNL1        0.1605
     19 S          65.7556   95.8305   10.3148 S.2     1  UNL1       -0.0272
     20 C          62.0429   86.4648   11.0335 C.ar    1  UNL1        0.0294
     21 C          62.3984   85.0949   10.5365 C.ar    1  UNL1        0.0035
     22 C          63.2660   84.1972   11.3680 C.ar    1  UNL1        0.0713
     23 C          63.7781   84.6694   12.6964 C.ar    1  UNL1        0.0070
     24 C          63.4226   86.0392   13.1934 C.ar    1  UNL1        0.0371
     25 C          62.5550   86.9369   12.3619 C.ar    1  UNL1        0.1422
     26 N          59.5048   88.2121   12.1079 N.pl3   1  UNL1       -0.2474
     27 C          60.0087   88.1657   10.6958 C.2     1  UNL1        0.3309
     28 N          59.4344   88.9143    9.5297 N.2     1  UNL1        0.0755
     29 N          60.2461   88.5738    8.3151 N.2     1  UNL1       -0.0367
     30 C          61.3221   87.6148    8.7306 C.2     1  UNL1        0.1389
     31 C          61.1753   87.3625   10.2020 C.3     1  UNL1        0.1779
     32 H          58.7279   88.7725   12.3351 H       1  UNL1        0.2882
     33 H          59.9510   87.6823   12.8075 H       1  UNL1        0.2882
     34 C          63.6215   82.8272   10.8710 C.3     1  UNL1        0.4186
     35 F          63.9770   81.4573   10.3741 F       1  UNL1       -0.1659
     36 F          62.4413   82.2566   11.5999 F       1  UNL1       -0.1659
     37 F          64.8017   83.3979   10.1421 F       1  UNL1       -0.1659
@<TRIPOS>BOND
     1    26    27    1
     2    27    28    2
     3    28    29    1
     4    29    30    2
     5    30    31    1
     6    31    20    1
     7    20    21   ar
     8    21    22   ar
     9    22    34    1
    10    34    35    1
    11    34    36    1
    12    34    37    1
    13    22    23   ar
    14    23    24   ar
    15    24    25   ar
    16    25     1    1
    17     1     2    1
    18     2     3   ar
    19     3     4   ar
    20     4     5    1
    21     4     6   ar
    22     6    10    1
    23    10    11    2
    24    10    12    2
    25    10    13    1
    26    13    15    1
    27    15    16   ar
    28    16    17   ar
    29    17    18   ar
    30    18    19   ar
    31     6     7   ar
    32     7     8   ar
    33     8     9    1
    34    31    27    1
    35    25    20   ar
    36     8     2   ar
    37    19    15   ar
    38    26    32    1
    39    26    33    1
    40    13    14    1
@<TRIPOS>MOLECULE
*****
 37 40 0 0 0
SMALL
GASTEIGER

@<TRIPOS>ATOM
      1 O          62.3486   87.8611   12.2997 O.3     1  UNL1       -0.4529
      2 C          63.1831   89.1074   12.3215 C.ar    1  UNL1        0.1580
      3 C          63.0769   90.1007   11.2025 C.ar    1  UNL1        0.0694
      4 C          63.9113   91.3470   11.2243 C.ar    1  UNL1        0.1620
      5 F          63.8052   92.3403   10.1055 F       1  UNL1       -0.2026
      6 C          64.8520   91.5999   12.3651 C.ar    1  UNL1        0.1535
      7 C          64.9582   90.6065   13.4840 C.ar    1  UNL1        0.0370
      8 C          64.1237   89.3603   13.4622 C.ar    1  UNL1        0.0936
      9 CL         64.2300   88.3669   14.5811 Cl      1  UNL1       -0.0790
     10 S          65.6865   92.8462   12.3869 S.O2    1  UNL1        0.0773
     11 O          65.3681   93.0339   13.8406 O.2     1  UNL1       -0.1498
     12 O          66.0049   92.6584   10.9331 O.2     1  UNL1       -0.1498
     13 N          66.5210   94.0924   12.4086 N.pl3   1  UNL1       -0.1922
     14 H          66.9889   94.3572   13.2334 H       1  UNL1        0.1758
     15 C          66.6426   94.9353   11.1738 C.ar    1  UNL1        0.2010
     16 N          67.6574   94.7601   10.0831 N.ar    1  UNL1       -0.1241
     17 N          67.4127   95.8178    9.0480 N.ar    1  UNL1       -0.1374
     18 C          66.2467   96.6467    9.4990 C.ar    1  UNL1        0.1605
     19 S          65.7707   96.1013   10.8128 S.2     1  UNL1       -0.0272
     20 C          62.4797   85.6741   10.9033 C.ar    1  UNL1        0.0294
     21 C          62.2594   84.9415    9.6130 C.ar    1  UNL1        0.0035
     22 C          61.6876   85.6633    8.4290 C.ar    1  UNL1        0.0713
     23 C          61.3361   87.1177    8.5351 C.ar    1  UNL1        0.0070
     24 C          61.5565   87.8503    9.8254 C.ar    1  UNL1        0.0371
     25 C          62.1283   87.1285   11.0094 C.ar    1  UNL1        0.1422
     26 N          64.7184   83.3016   10.8061 N.pl3   1  UNL1       -0.2474
     27 C          64.0805   83.8618   12.0428 C.2     1  UNL1        0.3309
     28 N          64.3597   83.4299   13.4518 N.2     1  UNL1        0.0755
     29 N          63.5032   84.2535   14.3674 N.2     1  UNL1       -0.0367
     30 C          62.6948   85.1944   13.5241 C.2     1  UNL1        0.1389
     31 C          63.0516   84.9523   12.0874 C.3     1  UNL1        0.1779
     32 H          65.3872   82.5829   10.8797 H       1  UNL1        0.2882
     33 H          64.4682   83.6525    9.9210 H       1  UNL1        0.2882
     34 C          61.4673   84.9307    7.1387 C.3     1  UNL1        0.4186
     35 F          61.2469   84.1981    5.8484 F       1  UNL1       -0.1659
     36 F          60.0133   85.2969    7.1791 F       1  UNL1       -0.1659
     37 F          62.9213   84.5645    7.0982 F       1  UNL1       -0.1659
@<TRIPOS>BOND
     1    26    27    1
     2    27    28    2
     3    28    29    1
     4    29    30    2
     5    30    31    1
     6    31    20    1
     7    20    21   ar
     8    21    22   ar
     9    22    34    1
    10    34    35    1
    11    34    36    1
    12    34    37    1
    13    22    23   ar
    14    23    24   ar
    15    24    25   ar
    16    25     1    1
    17     1     2    1
    18     2     3   ar
    19     3     4   ar
    20     4     5    1
    21     4     6   ar
    22     6    10    1
    23    10    11    2
    24    10    12    2
    25    10    13    1
    26    13    15    1
    27    15    16   ar
    28    16    17   ar
    29    17    18   ar
    30    18    19   ar
    31     6     7   ar
    32     7     8   ar
    33     8     9    1
    34    31    27    1
    35    25    20   ar
    36     8     2   ar
    37    19    15   ar
    38    26    32    1
    39    26    33    1
    40    13    14    1
@<TRIPOS>MOLECULE
*****
 37 40 0 0 0
SMALL
GASTEIGER

@<TRIPOS>ATOM
      1 O          63.6707   91.1047   13.9567 O.3     1  UNL1       -0.4529
      2 C          63.6995   89.6327   14.2441 C.ar    1  UNL1        0.1580
      3 C          63.7495   88.6486   13.1130 C.ar    1  UNL1        0.0694
      4 C          63.7783   87.1767   13.4004 C.ar    1  UNL1        0.1620
      5 F          63.8283   86.1926   12.2694 F       1  UNL1       -0.2026
      6 C          63.7573   86.6889   14.8187 C.ar    1  UNL1        0.1535
      7 C          63.7073   87.6729   15.9496 C.ar    1  UNL1        0.0370
      8 C          63.6785   89.1449   15.6623 C.ar    1  UNL1        0.0936
      9 CL         63.6285   90.1290   16.7933 Cl      1  UNL1       -0.0790
     10 S          63.7861   85.2169   15.1060 S.O2    1  UNL1        0.0773
     11 O          62.3225   85.2519   15.4323 O.2     1  UNL1       -0.1498
     12 O          65.2498   85.1819   14.7797 O.2     1  UNL1       -0.1498
     13 N          63.8150   83.7450   15.3934 N.pl3   1  UNL1       -0.1922
     14 H          64.2069   83.4151   16.2341 H       1  UNL1        0.1758
     15 C          63.2467   82.7756   14.3997 C.ar    1  UNL1        0.2010
     16 N          62.1062   81.8318   14.6417 N.ar    1  UNL1       -0.1241
     17 N          61.8737   81.0527   13.3812 N.ar    1  UNL1       -0.1374
     18 C          62.8705   81.5150   12.3601 C.ar    1  UNL1        0.1605
     19 S          63.7190   82.5798   12.9895 S.2     1  UNL1       -0.0272
     20 C          65.8299   92.2781   13.1134 C.ar    1  UNL1        0.0294
     21 C          66.6491   92.8389   11.9890 C.ar    1  UNL1        0.0035
     22 C          66.1282   92.7872   10.5833 C.ar    1  UNL1        0.0713
     23 C          64.7882   92.1746   10.3021 C.ar    1  UNL1        0.0070
     24 C          63.9690   91.6138   11.4265 C.ar    1  UNL1        0.0371
     25 C          64.4899   91.6655   12.8322 C.ar    1  UNL1        0.1422
     26 N          68.9428   91.9085   14.0206 N.pl3   1  UNL1       -0.2474
     27 C          67.7816   92.1599   14.9361 C.2     1  UNL1        0.3309
     28 N          67.8473   92.2856   16.4294 N.2     1  UNL1        0.0755
     29 N          66.4570   92.5332   16.9354 N.2     1  UNL1       -0.0367
     30 C          65.5322   92.5605   15.7548 C.2     1  UNL1        0.1389
     31 C          66.3508   92.3298   14.5192 C.3     1  UNL1        0.1779
     32 H          69.8496   91.8104   14.3912 H       1  UNL1        0.2882
     33 H          68.7982   91.8415   13.0491 H       1  UNL1        0.2882
     34 C          66.9474   93.3480    9.4588 C.3     1  UNL1        0.4186
     35 F          67.7665   93.9088    8.3343 F       1  UNL1       -0.1659
     36 F          67.7474   92.0802    9.4093 F       1  UNL1       -0.1659
     37 F          66.1474   94.6159    9.5083 F       1  UNL1       -0.1659
@<TRIPOS>BOND
     1    26    27    1
     2    27    28    2
     3    28    29    1
     4    29    30    2
     5    30    31    1
     6    31    20    1
     7    20    21   ar
     8    21    22   ar
     9    22    34    1
    10    34    35    1
    11    34    36    1
    12    34    37    1
    13    22    23   ar
    14    23    24   ar
    15    24    25   ar
    16    25     1    1
    17     1     2    1
    18     2     3   ar
    19     3     4   ar
    20     4     5    1
    21     4     6   ar
    22     6    10    1
    23    10    11    2
    24    10    12    2
    25    10    13    1
    26    13    15    1
    27    15    16   ar
    28    16    17   ar
    29    17    18   ar
    30    18    19   ar
    31     6     7   ar
    32     7     8   ar
    33     8     9    1
    34    31    27    1
    35    25    20   ar
    36     8     2   ar
    37    19    15   ar
    38    26    32    1
    39    26    33    1
    40    13    14    1
@<TRIPOS>MOLECULE
*****
 37 40 0 0 0
SMALL
GASTEIGER

@<TRIPOS>ATOM
      1 O          63.9249   91.1095   13.5714 O.3     1  UNL1       -0.4529
      2 C          63.8621   89.6108   13.5745 C.ar    1  UNL1        0.1580
      3 C          64.4646   88.8373   14.7098 C.ar    1  UNL1        0.0694
      4 C          64.4018   87.3386   14.7129 C.ar    1  UNL1        0.1620
      5 F          65.0043   86.5651   15.8481 F       1  UNL1       -0.2026
      6 C          63.7366   86.6134   13.5808 C.ar    1  UNL1        0.1535
      7 C          63.1341   87.3869   12.4456 C.ar    1  UNL1        0.0370
      8 C          63.1968   88.8856   12.4425 C.ar    1  UNL1        0.0936
      9 CL         62.5943   89.6591   11.3072 Cl      1  UNL1       -0.0790
     10 S          63.6738   85.1147   13.5840 S.O2    1  UNL1        0.0773
     11 O          62.2298   85.1744   13.1821 O.2     1  UNL1       -0.1498
     12 O          65.1177   85.0551   13.9858 O.2     1  UNL1       -0.1498
     13 N          63.6110   83.6161   13.5871 N.pl3   1  UNL1       -0.1922
     14 H          63.4928   83.1301   14.4351 H       1  UNL1        0.1758
     15 C          63.7283   82.8578   12.2982 C.ar    1  UNL1        0.2010
     16 N          64.6701   83.1711   11.1735 N.ar    1  UNL1       -0.1241
     17 N          64.4483   82.1601   10.0878 N.ar    1  UNL1       -0.1374
     18 C          63.3694   81.2219   10.5416 C.ar    1  UNL1        0.1605
     19 S          62.9244   81.6531   11.9076 S.2     1  UNL1       -0.0272
     20 C          66.0208   92.4842   12.8877 C.ar    1  UNL1        0.0294
     21 C          66.8201   93.1991   11.8389 C.ar    1  UNL1        0.0035
     22 C          66.3226   93.2543   10.4249 C.ar    1  UNL1        0.0713
     23 C          65.0260   92.5946   10.0597 C.ar    1  UNL1        0.0070
     24 C          64.2267   91.8797   11.1085 C.ar    1  UNL1        0.0371
     25 C          64.7241   91.8245   12.5225 C.ar    1  UNL1        0.1422
     26 N          69.0984   91.9251   13.8182 N.pl3   1  UNL1       -0.2474
     27 C          67.9328   92.1720   14.7295 C.2     1  UNL1        0.3309
     28 N          67.9772   92.2052   16.2284 N.2     1  UNL1        0.0755
     29 N          66.5899   92.4827   16.7272 N.2     1  UNL1       -0.0367
     30 C          65.6883   92.6209   15.5365 C.2     1  UNL1        0.1389
     31 C          66.5182   92.4289   14.3018 C.3     1  UNL1        0.1779
     32 H          69.9934   91.7655   14.1960 H       1  UNL1        0.2882
     33 H          68.9684   91.9227   12.8423 H       1  UNL1        0.2882
     34 C          67.1219   93.9693    9.3760 C.3     1  UNL1        0.4186
     35 F          67.9211   94.6843    8.3272 F       1  UNL1       -0.1659
     36 F          66.3548   95.2288    9.6501 F       1  UNL1       -0.1659
     37 F          67.8890   92.7098    9.1019 F       1  UNL1       -0.1659
@<TRIPOS>BOND
     1    26    27    1
     2    27    28    2
     3    28    29    1
     4    29    30    2
     5    30    31    1
     6    31    20    1
     7    20    21   ar
     8    21    22   ar
     9    22    34    1
    10    34    35    1
    11    34    36    1
    12    34    37    1
    13    22    23   ar
    14    23    24   ar
    15    24    25   ar
    16    25     1    1
    17     1     2    1
    18     2     3   ar
    19     3     4   ar
    20     4     5    1
    21     4     6   ar
    22     6    10    1
    23    10    11    2
    24    10    12    2
    25    10    13    1
    26    13    15    1
    27    15    16   ar
    28    16    17   ar
    29    17    18   ar
    30    18    19   ar
    31     6     7   ar
    32     7     8   ar
    33     8     9    1
    34    31    27    1
    35    25    20   ar
    36     8     2   ar
    37    19    15   ar
    38    26    32    1
    39    26    33    1
    40    13    14    1
@<TRIPOS>MOLECULE
*****
 37 40 0 0 0
SMALL
GASTEIGER

@<TRIPOS>ATOM
      1 O          61.3496   87.3486   11.5788 O.3     1  UNL1       -0.4529
      2 C          62.2369   88.5164   11.8936 C.ar    1  UNL1        0.1580
      3 C          63.2979   88.3897   12.9465 C.ar    1  UNL1        0.0694
      4 C          64.1852   89.5574   13.2613 C.ar    1  UNL1        0.1620
      5 F          65.2462   89.4309   14.3140 F       1  UNL1       -0.2026
      6 C          64.0116   90.8518   12.5232 C.ar    1  UNL1        0.1535
      7 C          62.9506   90.9784   11.4705 C.ar    1  UNL1        0.0370
      8 C          62.0633   89.8106   11.1557 C.ar    1  UNL1        0.0936
      9 CL         61.0023   89.9373   10.1028 Cl      1  UNL1       -0.0790
     10 S          64.8989   92.0195   12.8380 S.O2    1  UNL1        0.0773
     11 O          65.2944   92.1083   11.3938 O.2     1  UNL1       -0.1498
     12 O          64.5034   91.9307   14.2822 O.2     1  UNL1       -0.1498
     13 N          65.7862   93.1872   13.1528 N.pl3   1  UNL1       -0.1922
     14 H          65.5194   94.0953   12.8819 H       1  UNL1        0.1758
     15 C          67.0802   92.9713   13.8803 C.ar    1  UNL1        0.2010
     16 N          68.2922   92.2751   13.3359 N.ar    1  UNL1       -0.1241
     17 N          69.3503   92.2871   14.3990 N.ar    1  UNL1       -0.1374
     18 C          68.7922   92.9908   15.6005 C.ar    1  UNL1        0.1605
     19 S          67.3892   93.4136   15.2799 S.2     1  UNL1       -0.0272
     20 C          62.2139   85.3394   10.1768 C.ar    1  UNL1        0.0294
     21 C          62.3418   84.6341    8.8591 C.ar    1  UNL1        0.0035
     22 C          61.7330   85.2328    7.6259 C.ar    1  UNL1        0.0713
     23 C          60.9964   86.5367    7.7103 C.ar    1  UNL1        0.0070
     24 C          60.8686   87.2420    9.0279 C.ar    1  UNL1        0.0371
     25 C          61.4774   86.6433   10.2611 C.ar    1  UNL1        0.1422
     26 N          64.5762   83.0890   10.2515 N.pl3   1  UNL1       -0.2474
     27 C          63.9085   83.7063   11.4444 C.2     1  UNL1        0.3309
     28 N          64.2094   83.3977   12.8812 N.2     1  UNL1        0.0755
     29 N          63.3095   84.2413   13.7348 N.2     1  UNL1       -0.0367
     30 C          62.4526   85.0713   12.8256 C.2     1  UNL1        0.1389
     31 C          62.8227   84.7407   11.4101 C.3     1  UNL1        0.1779
     32 H          65.2824   82.4146   10.3768 H       1  UNL1        0.2882
     33 H          64.3082   83.3582    9.3433 H       1  UNL1        0.2882
     34 C          61.8608   84.5275    6.3082 C.3     1  UNL1        0.4186
     35 F          61.9885   83.8222    4.9905 F       1  UNL1       -0.1659
     36 F          60.3683   84.3987    6.2324 F       1  UNL1       -0.1659
     37 F          63.3533   84.6562    6.3839 F       1  UNL1       -0.1659
@<TRIPOS>BOND
     1    26    27    1
     2    27    28    2
     3    28    29    1
     4    29    30    2
     5    30    31    1
     6    31    20    1
     7    20    21   ar
     8    21    22   ar
     9    22    34    1
    10    34    35    1
    11    34    36    1
    12    34    37    1
    13    22    23   ar
    14    23    24   ar
    15    24    25   ar
    16    25     1    1
    17     1     2    1
    18     2     3   ar
    19     3     4   ar
    20     4     5    1
    21     4     6   ar
    22     6    10    1
    23    10    11    2
    24    10    12    2
    25    10    13    1
    26    13    15    1
    27    15    16   ar
    28    16    17   ar
    29    17    18   ar
    30    18    19   ar
    31     6     7   ar
    32     7     8   ar
    33     8     9    1
    34    31    27    1
    35    25    20   ar
    36     8     2   ar
    37    19    15   ar
    38    26    32    1
    39    26    33    1
    40    13    14    1
@<TRIPOS>MOLECULE
*****
 37 40 0 0 0
SMALL
GASTEIGER

@<TRIPOS>ATOM
      1 O          64.4010   92.1641   12.5400 O.3     1  UNL1       -0.4529
      2 C          63.8764   90.7889   12.2506 C.ar    1  UNL1        0.1580
      3 C          64.0663   89.6878   13.2514 C.ar    1  UNL1        0.0694
      4 C          63.5418   88.3126   12.9620 C.ar    1  UNL1        0.1620
      5 F          63.7316   87.2115   13.9628 F       1  UNL1       -0.2026
      6 C          62.8273   88.0386   11.6718 C.ar    1  UNL1        0.1535
      7 C          62.6375   89.1396   10.6711 C.ar    1  UNL1        0.0370
      8 C          63.1620   90.5148   10.9605 C.ar    1  UNL1        0.0936
      9 CL         62.9721   91.6159    9.9597 Cl      1  UNL1       -0.0790
     10 S          62.3028   86.6634   11.3824 S.O2    1  UNL1        0.0773
     11 O          63.0532   86.1281   12.5658 O.2     1  UNL1       -0.1498
     12 O          61.5524   87.1986   10.1990 O.2     1  UNL1       -0.1498
     13 N          61.7783   85.2882   11.0931 N.pl3   1  UNL1       -0.1922
     14 H          60.8150   85.1501   10.9440 H       1  UNL1        0.1758
     15 C          62.7215   84.1235   11.0308 C.ar    1  UNL1        0.2010
     16 N          63.7774   83.8987    9.9894 N.ar    1  UNL1       -0.1241
     17 N          64.4829   82.6154   10.3140 N.ar    1  UNL1       -0.1374
     18 C          63.8629   82.0470   11.5560 C.ar    1  UNL1        0.1605
     19 S          62.7743   82.9790   11.9990 S.2     1  UNL1       -0.0272
     20 C          66.9178   92.6810   12.9256 C.ar    1  UNL1        0.0294
     21 C          68.0792   92.8598   13.8578 C.ar    1  UNL1        0.0035
     22 C          67.8853   92.7007   15.3367 C.ar    1  UNL1        0.0713
     23 C          66.5300   92.3626   15.8833 C.ar    1  UNL1        0.0070
     24 C          65.3685   92.1838   14.9511 C.ar    1  UNL1        0.0371
     25 C          65.5624   92.3429   13.4723 C.ar    1  UNL1        0.1422
     26 N          65.4888   94.9237   11.0340 N.pl3   1  UNL1       -0.2474
     27 C          66.4548   93.8710   10.5773 C.2     1  UNL1        0.3309
     28 N          66.9336   93.6643    9.1709 N.2     1  UNL1        0.0755
     29 N          67.8864   92.5057    9.1711 N.2     1  UNL1       -0.0367
     30 C          67.9964   91.9964   10.5776 C.2     1  UNL1        0.1389
     31 C          67.1116   92.8402   11.4467 C.3     1  UNL1        0.1779
     32 H          65.1093   95.5587   10.3844 H       1  UNL1        0.2882
     33 H          65.2343   94.9796   11.9834 H       1  UNL1        0.2882
     34 C          69.0467   92.8795   16.2690 C.3     1  UNL1        0.4186
     35 F          70.2081   93.0584   17.2013 F       1  UNL1       -0.1659
     36 F          68.5553   91.7325   17.1013 F       1  UNL1       -0.1659
     37 F          69.5382   94.0266   15.4367 F       1  UNL1       -0.1659
@<TRIPOS>BOND
     1    26    27    1
     2    27    28    2
     3    28    29    1
     4    29    30    2
     5    30    31    1
     6    31    20    1
     7    20    21   ar
     8    21    22   ar
     9    22    34    1
    10    34    35    1
    11    34    36    1
    12    34    37    1
    13    22    23   ar
    14    23    24   ar
    15    24    25   ar
    16    25     1    1
    17     1     2    1
    18     2     3   ar
    19     3     4   ar
    20     4     5    1
    21     4     6   ar
    22     6    10    1
    23    10    11    2
    24    10    12    2
    25    10    13    1
    26    13    15    1
    27    15    16   ar
    28    16    17   ar
    29    17    18   ar
    30    18    19   ar
    31     6     7   ar
    32     7     8   ar
    33     8     9    1
    34    31    27    1
    35    25    20   ar
    36     8     2   ar
    37    19    15   ar
    38    26    32    1
    39    26    33    1
    40    13    14    1
@<TRIPOS>MOLECULE
*****
 37 40 0 0 0
SMALL
GASTEIGER

@<TRIPOS>ATOM
      1 O          62.1477   87.8106   11.5750 O.3     1  UNL1       -0.4529
      2 C          62.9983   88.9709   11.9995 C.ar    1  UNL1        0.1580
      3 C          63.7877   88.8959   13.2728 C.ar    1  UNL1        0.0694
      4 C          64.6383   90.0562   13.6974 C.ar    1  UNL1        0.1620
      5 F          65.4277   89.9813   14.9706 F       1  UNL1       -0.2026
      6 C          64.6994   91.2915   12.8486 C.ar    1  UNL1        0.1535
      7 C          63.9100   91.3665   11.5753 C.ar    1  UNL1        0.0370
      8 C          63.0594   90.2062   11.1508 C.ar    1  UNL1        0.0936
      9 CL         62.2700   90.2812    9.8775 Cl      1  UNL1       -0.0790
     10 S          65.5500   92.4518   13.2731 S.O2    1  UNL1        0.0773
     11 O          64.9487   92.3903   14.6460 O.2     1  UNL1       -0.1498
     12 O          66.1512   92.5134   11.9003 O.2     1  UNL1       -0.1498
     13 N          66.4005   93.6121   13.6976 N.pl3   1  UNL1       -0.1922
     14 H          66.2341   94.5074   13.3235 H       1  UNL1        0.1758
     15 C          67.5048   93.4083   14.6922 C.ar    1  UNL1        0.2010
     16 N          68.0998   94.4630   15.5775 N.ar    1  UNL1       -0.1241
     17 N          69.1707   93.8206   16.4085 N.ar    1  UNL1       -0.1374
     18 C          69.2375   92.3689   16.0368 C.ar    1  UNL1        0.1605
     19 S          68.2080   92.1141   14.9761 S.2     1  UNL1       -0.0272
     20 C          62.3966   85.3038   10.9394 C.ar    1  UNL1        0.0294
     21 C          62.8002   83.9055   11.3024 C.ar    1  UNL1        0.0035
     22 C          63.3587   83.6157   12.6641 C.ar    1  UNL1        0.0713
     23 C          63.5135   84.7242   13.6627 C.ar    1  UNL1        0.0070
     24 C          63.1098   86.1225   13.2997 C.ar    1  UNL1        0.0371
     25 C          62.5514   86.4123   11.9381 C.ar    1  UNL1        0.1422
     26 N          59.7743   87.1352   10.2915 N.pl3   1  UNL1       -0.2474
     27 C          60.6328   86.4354    9.2800 C.2     1  UNL1        0.3309
     28 N          60.4367   86.4546    7.7930 N.2     1  UNL1        0.0755
     29 N          61.5208   85.6246    7.1717 N.2     1  UNL1       -0.0367
     30 C          62.3869   85.0925    8.2747 C.2     1  UNL1        0.1389
     31 C          61.8381   85.5936    9.5777 C.3     1  UNL1        0.1779
     32 H          59.0003   87.6673    9.9965 H       1  UNL1        0.2882
     33 H          59.9849   87.0624   11.2505 H       1  UNL1        0.2882
     34 C          63.7623   82.2174   13.0271 C.3     1  UNL1        0.4186
     35 F          64.1660   80.8191   13.3902 F       1  UNL1       -0.1659
     36 F          64.9323   82.3127   12.0933 F       1  UNL1       -0.1659
     37 F          62.5924   82.1220   13.9610 F       1  UNL1       -0.1659
@<TRIPOS>BOND
     1    26    27    1
     2    27    28    2
     3    28    29    1
     4    29    30    2
     5    30    31    1
     6    31    20    1
     7    20    21   ar
     8    21    22   ar
     9    22    34    1
    10    34    35    1
    11    34    36    1
    12    34    37    1
    13    22    23   ar
    14    23    24   ar
    15    24    25   ar
    16    25     1    1
    17     1     2    1
    18     2     3   ar
    19     3     4   ar
    20     4     5    1
    21     4     6   ar
    22     6    10    1
    23    10    11    2
    24    10    12    2
    25    10    13    1
    26    13    15    1
    27    15    16   ar
    28    16    17   ar
    29    17    18   ar
    30    18    19   ar
    31     6     7   ar
    32     7     8   ar
    33     8     9    1
    34    31    27    1
    35    25    20   ar
    36     8     2   ar
    37    19    15   ar
    38    26    32    1
    39    26    33    1
    40    13    14    1
@<TRIPOS>MOLECULE
*****
 37 40 0 0 0
SMALL
GASTEIGER

@<TRIPOS>ATOM
      1 O          63.3209   85.2043   11.6727 O.3     1  UNL1       -0.4529
      2 C          62.3752   85.8757   10.7214 C.ar    1  UNL1        0.1580
      3 C          61.3331   86.8209   11.2418 C.ar    1  UNL1        0.0694
      4 C          60.3875   87.4923   10.2905 C.ar    1  UNL1        0.1620
      5 F          59.3455   88.4375   10.8108 F       1  UNL1       -0.2026
      6 C          60.4840   87.2185    8.8188 C.ar    1  UNL1        0.1535
      7 C          61.5260   86.2734    8.2985 C.ar    1  UNL1        0.0370
      8 C          62.4717   85.6020    9.2498 C.ar    1  UNL1        0.0936
      9 CL         63.5138   84.6568    8.7294 Cl      1  UNL1       -0.0790
     10 S          59.5383   87.8899    7.8675 S.O2    1  UNL1        0.0773
     11 O          60.0522   89.2303    8.3027 O.2     1  UNL1       -0.1498
     12 O          59.0244   86.5496    7.4323 O.2     1  UNL1       -0.1498
     13 N          58.5927   88.5614    6.9162 N.pl3   1  UNL1       -0.1922
     14 H          57.6709   88.2288    6.8216 H       1  UNL1        0.1758
     15 C          59.0516   89.7395    6.1089 C.ar    1  UNL1        0.2010
     16 N          60.4556   90.0006    5.6499 N.ar    1  UNL1       -0.1241
     17 N          60.4588   91.2857    4.8763 N.ar    1  UNL1       -0.1374
     18 C          59.0568   91.8188    4.8572 C.ar    1  UNL1        0.1605
     19 S          58.1871   90.8631    5.6191 S.2     1  UNL1       -0.0272
     20 C          62.9785   84.4489   14.1349 C.ar    1  UNL1        0.0294
     21 C          62.9269   84.7742   15.5983 C.ar    1  UNL1        0.0035
     22 C          63.1662   86.1802   16.0629 C.ar    1  UNL1        0.0713
     23 C          63.4570   87.2609   15.0642 C.ar    1  UNL1        0.0070
     24 C          63.5085   86.9356   13.6008 C.ar    1  UNL1        0.0371
     25 C          63.2693   85.5296   13.1362 C.ar    1  UNL1        0.1422
     26 N          64.7795   82.8153   11.9583 N.pl3   1  UNL1       -0.2474
     27 C          63.5671   82.2920   12.6698 C.2     1  UNL1        0.3309
     28 N          62.9697   80.9260   12.5056 N.2     1  UNL1        0.0755
     29 N          61.7726   80.8325   13.4047 N.2     1  UNL1       -0.0367
     30 C          61.6302   82.1408   14.1245 C.2     1  UNL1        0.1389
     31 C          62.7393   83.0429   13.6702 C.3     1  UNL1        0.1779
     32 H          65.2583   82.2434   11.3157 H       1  UNL1        0.2882
     33 H          65.0965   83.7307   12.1339 H       1  UNL1        0.2882
     34 C          63.1146   86.5055   17.5264 C.3     1  UNL1        0.4186
     35 F          63.0630   86.8307   18.9897 F       1  UNL1       -0.1659
     36 F          62.7426   85.0843   17.8292 F       1  UNL1       -0.1659
     37 F          63.4866   87.9267   17.2236 F       1  UNL1       -0.1659
@<TRIPOS>BOND
     1    26    27    1
     2    27    28    2
     3    28    29    1
     4    29    30    2
     5    30    31    1
     6    31    20    1
     7    20    21   ar
     8    21    22   ar
     9    22    34    1
    10    34    35    1
    11    34    36    1
    12    34    37    1
    13    22    23   ar
    14    23    24   ar
    15    24    25   ar
    16    25     1    1
    17     1     2    1
    18     2     3   ar
    19     3     4   ar
    20     4     5    1
    21     4     6   ar
    22     6    10    1
    23    10    11    2
    24    10    12    2
    25    10    13    1
    26    13    15    1
    27    15    16   ar
    28    16    17   ar
    29    17    18   ar
    30    18    19   ar
    31     6     7   ar
    32     7     8   ar
    33     8     9    1
    34    31    27    1
    35    25    20   ar
    36     8     2   ar
    37    19    15   ar
    38    26    32    1
    39    26    33    1
    40    13    14    1
