@<TRIPOS>MOLECULE
*****
 31 34 0 0 0
SMALL
GASTEIGER

@<TRIPOS>ATOM
      1 C          60.6495   94.1449   -2.0211 C.3     1  UNL1        0.0807
      2 C          60.1108   95.4760   -1.5871 C.3     1  UNL1        0.0415
      3 C          58.6713   95.8186   -1.8325 C.3     1  UNL1        0.0925
      4 N          57.7704   94.8303   -2.5119 N.pl3   1  UNL1       -0.3074
      5 C          58.3090   93.4993   -2.9459 C.3     1  UNL1        0.0925
      6 C          59.7486   93.1566   -2.7005 C.3     1  UNL1        0.0415
      7 C          56.3308   95.1730   -2.7573 C.ar    1  UNL1        0.0478
      8 C          55.8839   95.6002   -4.1240 C.ar    1  UNL1        0.0145
      9 C          54.4444   95.9429   -4.3694 C.ar    1  UNL1        0.0051
     10 C          53.4517   95.8584   -3.2480 C.ar    1  UNL1        0.0715
     11 C          53.8985   95.4312   -1.8814 C.ar    1  UNL1        0.0051
     12 C          55.3380   95.0885   -1.6360 C.ar    1  UNL1        0.0145
     13 C          52.0121   96.2011   -3.4934 C.3     1  UNL1        0.4186
     14 F          50.5725   96.5438   -3.7389 F       1  UNL1       -0.1659
     15 F          51.6811   95.8230   -2.0802 F       1  UNL1       -0.1659
     16 F          52.3431   96.5792   -4.9067 F       1  UNL1       -0.1659
     17 N          62.0891   93.8023   -1.7757 N.pl3   1  UNL1       -0.2872
     18 C          65.0107   93.7757   -5.1981 C.ar    1  UNL1        0.0685
     19 C          64.5680   95.0781   -4.6000 C.ar    1  UNL1        0.0116
     20 C          63.5942   95.0869   -3.4592 C.ar    1  UNL1        0.0155
     21 C          63.0629   93.7934   -2.9165 C.ar    1  UNL1        0.0516
     22 C          63.5056   92.4910   -3.5146 C.ar    1  UNL1        0.0155
     23 C          64.4795   92.4822   -4.6554 C.ar    1  UNL1        0.0116
     24 N          66.9585   93.7579   -7.4798 N.1     1  UNL1       -0.1908
     25 C          65.9846   93.7668   -6.3390 C.1     1  UNL1        0.1004
     26 C          62.5547   93.4685   -0.3894 C.ar    1  UNL1        0.0710
     27 C          61.6406   92.7460    0.5552 C.ar    1  UNL1        0.0180
     28 C          62.1063   92.4123    1.9415 C.ar    1  UNL1        0.0220
     29 C          63.4861   92.8010    2.3831 C.ar    1  UNL1        0.0990
     30 N          64.4002   93.5235    1.4385 N.ar    1  UNL1       -0.2410
     31 C          63.9346   93.8572    0.0522 C.ar    1  UNL1        0.1136
@<TRIPOS>BOND
     1    24    25    3
     2    25    18    1
     3    18    19   ar
     4    19    20   ar
     5    20    21   ar
     6    21    17    1
     7    17    26    1
     8    26    27   ar
     9    27    28   ar
    10    28    29   ar
    11    29    30   ar
    12    30    31   ar
    13    17     1    1
    14     1     2    1
    15     2     3    1
    16     3     4    1
    17     4     7    1
    18     7     8   ar
    19     8     9   ar
    20     9    10   ar
    21    10    13    1
    22    13    14    1
    23    13    15    1
    24    13    16    1
    25    10    11   ar
    26    11    12   ar
    27     4     5    1
    28     5     6    1
    29    21    22   ar
    30    22    23   ar
    31    23    18   ar
    32    31    26   ar
    33     6     1    1
    34    12     7   ar
@<TRIPOS>MOLECULE
*****
 31 34 0 0 0
SMALL
GASTEIGER

@<TRIPOS>ATOM
      1 C          59.5027   94.7540   -2.8030 C.3     1  UNL1        0.0807
      2 C          58.9003   96.0082   -2.2424 C.3     1  UNL1        0.0415
      3 C          57.4406   96.2918   -2.4387 C.3     1  UNL1        0.0925
      4 N          56.5831   95.3212   -3.1955 N.pl3   1  UNL1       -0.3074
      5 C          57.1854   94.0671   -3.7561 C.3     1  UNL1        0.0925
      6 C          58.6452   93.7834   -3.5598 C.3     1  UNL1        0.0415
      7 C          55.1232   95.6049   -3.3918 C.ar    1  UNL1        0.0478
      8 C          54.5995   95.9295   -4.7594 C.ar    1  UNL1        0.0145
      9 C          53.1397   96.2131   -4.9556 C.ar    1  UNL1        0.0051
     10 C          52.2037   96.1722   -3.7842 C.ar    1  UNL1        0.0715
     11 C          52.7274   95.8477   -2.4166 C.ar    1  UNL1        0.0051
     12 C          54.1872   95.5640   -2.2204 C.ar    1  UNL1        0.0145
     13 C          50.7438   96.4559   -3.9805 C.3     1  UNL1        0.4186
     14 F          49.2840   96.7395   -4.1767 F       1  UNL1       -0.1659
     15 F          50.8803   96.1474   -5.4420 F       1  UNL1       -0.1659
     16 F          50.6073   96.7643   -2.5189 F       1  UNL1       -0.1659
     17 N          60.9625   94.4704   -2.6067 N.pl3   1  UNL1       -0.2872
     18 C          62.3844   92.5162    1.1892 C.ar    1  UNL1        0.0685
     19 C          61.0783   92.1044    0.5774 C.ar    1  UNL1        0.0116
     20 C          60.6043   92.7558   -0.6879 C.ar    1  UNL1        0.0155
     21 C          61.4365   93.8190   -1.3414 C.ar    1  UNL1        0.0516
     22 C          62.7426   94.2307   -0.7296 C.ar    1  UNL1        0.0155
     23 C          63.2166   93.5793    0.5357 C.ar    1  UNL1        0.0116
     24 N          63.3324   91.2134    3.7199 N.1     1  UNL1       -0.1908
     25 C          62.8584   91.8648    2.4546 C.1     1  UNL1        0.1004
     26 C          61.9483   94.8381   -3.6758 C.ar    1  UNL1        0.0710
     27 C          62.6983   93.7638   -4.4061 C.ar    1  UNL1        0.0180
     28 C          63.6841   94.1317   -5.4752 C.ar    1  UNL1        0.0220
     29 C          63.9199   95.5738   -5.8139 C.ar    1  UNL1        0.0990
     30 N          63.1699   96.6480   -5.0836 N.ar    1  UNL1       -0.2410
     31 C          62.1841   96.2803   -4.0146 C.ar    1  UNL1        0.1136
@<TRIPOS>BOND
     1    24    25    3
     2    25    18    1
     3    18    19   ar
     4    19    20   ar
     5    20    21   ar
     6    21    17    1
     7    17    26    1
     8    26    27   ar
     9    27    28   ar
    10    28    29   ar
    11    29    30   ar
    12    30    31   ar
    13    17     1    1
    14     1     2    1
    15     2     3    1
    16     3     4    1
    17     4     7    1
    18     7     8   ar
    19     8     9   ar
    20     9    10   ar
    21    10    13    1
    22    13    14    1
    23    13    15    1
    24    13    16    1
    25    10    11   ar
    26    11    12   ar
    27     4     5    1
    28     5     6    1
    29    21    22   ar
    30    22    23   ar
    31    23    18   ar
    32    31    26   ar
    33     6     1    1
    34    12     7   ar
@<TRIPOS>MOLECULE
*****
 31 34 0 0 0
SMALL
GASTEIGER

@<TRIPOS>ATOM
      1 C          59.7108   94.0306    0.5795 C.3     1  UNL1        0.0807
      2 C          59.3865   95.4698    0.3079 C.3     1  UNL1        0.0415
      3 C          58.2602   95.8231   -0.6176 C.3     1  UNL1        0.0925
      4 N          57.4582   94.7372   -1.2715 N.pl3   1  UNL1       -0.3074
      5 C          57.7824   93.2981   -1.0001 C.3     1  UNL1        0.0925
      6 C          58.9088   92.9448   -0.0745 C.3     1  UNL1        0.0415
      7 C          56.3318   95.0906   -2.1971 C.ar    1  UNL1        0.0478
      8 C          56.5171   94.9778   -3.6813 C.ar    1  UNL1        0.0145
      9 C          55.3908   95.3311   -4.6067 C.ar    1  UNL1        0.0051
     10 C          54.0791   95.7972   -4.0479 C.ar    1  UNL1        0.0715
     11 C          53.8938   95.9100   -2.5638 C.ar    1  UNL1        0.0051
     12 C          55.0201   95.5567   -1.6383 C.ar    1  UNL1        0.0145
     13 C          52.9527   96.1505   -4.9735 C.3     1  UNL1        0.4186
     14 F          51.8265   96.5038   -5.8990 F       1  UNL1       -0.1659
     15 F          52.1098   96.5450   -3.7971 F       1  UNL1       -0.1659
     16 F          53.7957   95.7561   -6.1498 F       1  UNL1       -0.1659
     17 N          60.8372   93.6774    1.5049 N.pl3   1  UNL1       -0.2872
     18 C          60.0836   91.0116    5.0512 C.ar    1  UNL1        0.0685
     19 C          58.9703   91.8452    4.4895 C.ar    1  UNL1        0.0116
     20 C          59.2215   92.7338    3.3074 C.ar    1  UNL1        0.0155
     21 C          60.5860   92.7888    2.6870 C.ar    1  UNL1        0.0516
     22 C          61.6993   91.9552    3.2487 C.ar    1  UNL1        0.0155
     23 C          61.4482   91.0666    4.4307 C.ar    1  UNL1        0.0116
     24 N          59.5813   89.2343    7.4153 N.1     1  UNL1       -0.1908
     25 C          59.8325   90.1229    6.2332 C.1     1  UNL1        0.1004
     26 C          62.2146   94.2127    1.2484 C.ar    1  UNL1        0.0710
     27 C          63.1811   93.4268    0.4127 C.ar    1  UNL1        0.0180
     28 C          64.5587   93.9622    0.1561 C.ar    1  UNL1        0.0220
     29 C          64.9697   95.2834    0.7352 C.ar    1  UNL1        0.0990
     30 N          64.0032   96.0693    1.5708 N.ar    1  UNL1       -0.2410
     31 C          62.6257   95.5340    1.8274 C.ar    1  UNL1        0.1136
@<TRIPOS>BOND
     1    24    25    3
     2    25    18    1
     3    18    19   ar
     4    19    20   ar
     5    20    21   ar
     6    21    17    1
     7    17    26    1
     8    26    27   ar
     9    27    28   ar
    10    28    29   ar
    11    29    30   ar
    12    30    31   ar
    13    17     1    1
    14     1     2    1
    15     2     3    1
    16     3     4    1
    17     4     7    1
    18     7     8   ar
    19     8     9   ar
    20     9    10   ar
    21    10    13    1
    22    13    14    1
    23    13    15    1
    24    13    16    1
    25    10    11   ar
    26    11    12   ar
    27     4     5    1
    28     5     6    1
    29    21    22   ar
    30    22    23   ar
    31    23    18   ar
    32    31    26   ar
    33     6     1    1
    34    12     7   ar
@<TRIPOS>MOLECULE
*****
 31 34 0 0 0
SMALL
GASTEIGER

@<TRIPOS>ATOM
      1 C          63.0450   87.6018   12.3947 C.3     1  UNL1        0.0807
      2 C          63.0867   88.9561   11.7511 C.3     1  UNL1        0.0415
      3 C          63.9440   90.0387   12.3367 C.3     1  UNL1        0.0925
      4 N          64.7596   89.7671   13.5659 N.pl3   1  UNL1       -0.3074
      5 C          64.7180   88.4128   14.2095 C.3     1  UNL1        0.0925
      6 C          63.8606   87.3302   13.6239 C.3     1  UNL1        0.0415
      7 C          65.6170   90.8498   14.1515 C.ar    1  UNL1        0.0478
      8 C          65.2168   91.5102   15.4374 C.ar    1  UNL1        0.0145
      9 C          66.0741   92.5928   16.0229 C.ar    1  UNL1        0.0051
     10 C          67.3316   93.0150   15.3225 C.ar    1  UNL1        0.0715
     11 C          67.7317   92.3546   14.0366 C.ar    1  UNL1        0.0051
     12 C          66.8744   91.2719   13.4511 C.ar    1  UNL1        0.0145
     13 C          68.1889   94.0977   15.9081 C.3     1  UNL1        0.4186
     14 F          69.0462   95.1803   16.4937 F       1  UNL1       -0.1659
     15 F          68.8930   93.0811   16.7571 F       1  UNL1       -0.1659
     16 F          67.4849   95.1143   15.0592 F       1  UNL1       -0.1659
     17 N          62.1877   86.5192   11.8091 N.pl3   1  UNL1       -0.2872
     18 C          62.5787   82.2891   13.2934 C.ar    1  UNL1        0.0685
     19 C          62.2737   83.3970   14.2574 C.ar    1  UNL1        0.0116
     20 C          62.1433   84.8071   13.7626 C.ar    1  UNL1        0.0155
     21 C          62.3180   85.1092   12.3038 C.ar    1  UNL1        0.0516
     22 C          62.6231   84.0013   11.3398 C.ar    1  UNL1        0.0155
     23 C          62.7534   82.5912   11.8346 C.ar    1  UNL1        0.0116
     24 N          62.8394   79.4690   14.2829 N.1     1  UNL1       -0.1908
     25 C          62.7091   80.8791   13.7882 C.1     1  UNL1        0.1004
     26 C          61.2000   86.8467   10.7287 C.ar    1  UNL1        0.0710
     27 C          61.2859   86.1565    9.3997 C.ar    1  UNL1        0.0180
     28 C          60.2982   86.4840    8.3193 C.ar    1  UNL1        0.0220
     29 C          59.2246   87.5016    8.5679 C.ar    1  UNL1        0.0990
     30 N          59.1387   88.1918    9.8969 N.ar    1  UNL1       -0.2410
     31 C          60.1264   87.8644   10.9773 C.ar    1  UNL1        0.1136
@<TRIPOS>BOND
     1    24    25    3
     2    25    18    1
     3    18    19   ar
     4    19    20   ar
     5    20    21   ar
     6    21    17    1
     7    17    26    1
     8    26    27   ar
     9    27    28   ar
    10    28    29   ar
    11    29    30   ar
    12    30    31   ar
    13    17     1    1
    14     1     2    1
    15     2     3    1
    16     3     4    1
    17     4     7    1
    18     7     8   ar
    19     8     9   ar
    20     9    10   ar
    21    10    13    1
    22    13    14    1
    23    13    15    1
    24    13    16    1
    25    10    11   ar
    26    11    12   ar
    27     4     5    1
    28     5     6    1
    29    21    22   ar
    30    22    23   ar
    31    23    18   ar
    32    31    26   ar
    33     6     1    1
    34    12     7   ar
@<TRIPOS>MOLECULE
*****
 31 34 0 0 0
SMALL
GASTEIGER

@<TRIPOS>ATOM
      1 C          62.0058   85.0948   11.3491 C.3     1  UNL1        0.0807
      2 C          61.2816   86.3148   11.8362 C.3     1  UNL1        0.0415
      3 C          60.7086   87.2901   10.8511 C.3     1  UNL1        0.0925
      4 N          60.8598   87.0454    9.3789 N.pl3   1  UNL1       -0.3074
      5 C          61.5840   85.8255    8.8918 C.3     1  UNL1        0.0925
      6 C          62.1570   84.8501    9.8769 C.3     1  UNL1        0.0415
      7 C          60.2868   88.0208    8.3938 C.ar    1  UNL1        0.0478
      8 C          60.6294   89.4776    8.4948 C.ar    1  UNL1        0.0145
      9 C          60.0564   90.4529    7.5098 C.ar    1  UNL1        0.0051
     10 C          59.1408   89.9713    6.4236 C.ar    1  UNL1        0.0715
     11 C          58.7982   88.5145    6.3225 C.ar    1  UNL1        0.0051
     12 C          59.3712   87.5392    7.3076 C.ar    1  UNL1        0.0145
     13 C          58.5677   90.9467    5.4385 C.3     1  UNL1        0.4186
     14 F          57.9948   91.9220    4.4534 F       1  UNL1       -0.1659
     15 F          57.1847   90.4728    5.7737 F       1  UNL1       -0.1659
     16 F          59.9508   91.4206    5.1032 F       1  UNL1       -0.1659
     17 N          62.5788   84.1195   12.3342 N.pl3   1  UNL1       -0.2872
     18 C          62.8578   79.7545   11.2765 C.ar    1  UNL1        0.0685
     19 C          62.3244   80.1691   12.6157 C.ar    1  UNL1        0.0116
     20 C          62.2314   81.6241   12.9683 C.ar    1  UNL1        0.0155
     21 C          62.6718   82.6645   11.9817 C.ar    1  UNL1        0.0516
     22 C          63.2052   82.2499   10.6424 C.ar    1  UNL1        0.0155
     23 C          63.2982   80.7949   10.2899 C.ar    1  UNL1        0.0116
     24 N          63.0438   76.8445   10.5714 N.1     1  UNL1       -0.1908
     25 C          62.9508   78.2995   10.9239 C.1     1  UNL1        0.1004
     26 C          63.0588   84.5992   13.6719 C.ar    1  UNL1        0.0710
     27 C          64.4293   85.1935   13.8080 C.ar    1  UNL1        0.0180
     28 C          64.9093   85.6732   15.1458 C.ar    1  UNL1        0.0220
     29 C          64.0187   85.5587   16.3474 C.ar    1  UNL1        0.0990
     30 N          62.6482   84.9645   16.2112 N.ar    1  UNL1       -0.2410
     31 C          62.1682   84.4847   14.8735 C.ar    1  UNL1        0.1136
@<TRIPOS>BOND
     1    24    25    3
     2    25    18    1
     3    18    19   ar
     4    19    20   ar
     5    20    21   ar
     6    21    17    1
     7    17    26    1
     8    26    27   ar
     9    27    28   ar
    10    28    29   ar
    11    29    30   ar
    12    30    31   ar
    13    17     1    1
    14     1     2    1
    15     2     3    1
    16     3     4    1
    17     4     7    1
    18     7     8   ar
    19     8     9   ar
    20     9    10   ar
    21    10    13    1
    22    13    14    1
    23    13    15    1
    24    13    16    1
    25    10    11   ar
    26    11    12   ar
    27     4     5    1
    28     5     6    1
    29    21    22   ar
    30    22    23   ar
    31    23    18   ar
    32    31    26   ar
    33     6     1    1
    34    12     7   ar
@<TRIPOS>MOLECULE
*****
 31 34 0 0 0
SMALL
GASTEIGER

@<TRIPOS>ATOM
      1 C          64.4154   89.2657   13.7339 C.3     1  UNL1        0.0807
      2 C          64.8686   88.2807   14.7705 C.3     1  UNL1        0.0415
      3 C          64.4734   86.8381   14.6579 C.3     1  UNL1        0.0925
      4 N          63.6250   86.3804   13.5087 N.pl3   1  UNL1       -0.3074
      5 C          63.1718   87.3653   12.4721 C.3     1  UNL1        0.0925
      6 C          63.5670   88.8080   12.5847 C.3     1  UNL1        0.0415
      7 C          63.2297   84.9378   13.3961 C.ar    1  UNL1        0.0478
      8 C          63.1989   84.2713   12.0527 C.ar    1  UNL1        0.0145
      9 C          62.8037   82.8287   11.9402 C.ar    1  UNL1        0.0051
     10 C          62.4393   82.0526   13.1710 C.ar    1  UNL1        0.0715
     11 C          62.4702   82.7191   14.5144 C.ar    1  UNL1        0.0051
     12 C          62.8654   84.1617   14.6269 C.ar    1  UNL1        0.0145
     13 C          62.0441   80.6099   13.0584 C.3     1  UNL1        0.4186
     14 F          61.6489   79.1674   12.9459 F       1  UNL1       -0.1659
     15 F          62.9702   80.4474   11.8897 F       1  UNL1       -0.1659
     16 F          61.1181   80.7725   14.2271 F       1  UNL1       -0.1659
     17 N          64.8106   90.7083   13.8466 N.pl3   1  UNL1       -0.2872
     18 C          66.4571   92.8765   10.2636 C.ar    1  UNL1        0.0685
     19 C          67.3781   92.4372   11.3629 C.ar    1  UNL1        0.0116
     20 C          66.8293   91.7145   12.5573 C.ar    1  UNL1        0.0155
     21 C          65.3595   91.4310   12.6522 C.ar    1  UNL1        0.0516
     22 C          64.4384   91.8703   11.5529 C.ar    1  UNL1        0.0155
     23 C          64.9872   92.5930   10.3585 C.ar    1  UNL1        0.0116
     24 N          67.5547   94.3220    7.8749 N.1     1  UNL1       -0.1908
     25 C          67.0059   93.5993    9.0692 C.1     1  UNL1        0.1004
     26 C          64.6570   91.4281   15.1535 C.ar    1  UNL1        0.0710
     27 C          65.8094   92.2001   15.7245 C.ar    1  UNL1        0.0180
     28 C          65.6558   92.9199   17.0316 C.ar    1  UNL1        0.0220
     29 C          64.3498   92.8677   17.7676 C.ar    1  UNL1        0.0990
     30 N          63.1974   92.0957   17.1965 N.ar    1  UNL1       -0.2410
     31 C          63.3510   91.3759   15.8896 C.ar    1  UNL1        0.1136
@<TRIPOS>BOND
     1    24    25    3
     2    25    18    1
     3    18    19   ar
     4    19    20   ar
     5    20    21   ar
     6    21    17    1
     7    17    26    1
     8    26    27   ar
     9    27    28   ar
    10    28    29   ar
    11    29    30   ar
    12    30    31   ar
    13    17     1    1
    14     1     2    1
    15     2     3    1
    16     3     4    1
    17     4     7    1
    18     7     8   ar
    19     8     9   ar
    20     9    10   ar
    21    10    13    1
    22    13    14    1
    23    13    15    1
    24    13    16    1
    25    10    11   ar
    26    11    12   ar
    27     4     5    1
    28     5     6    1
    29    21    22   ar
    30    22    23   ar
    31    23    18   ar
    32    31    26   ar
    33     6     1    1
    34    12     7   ar
@<TRIPOS>MOLECULE
*****
 31 34 0 0 0
SMALL
GASTEIGER

@<TRIPOS>ATOM
      1 C          62.5446   87.4543   12.1548 C.3     1  UNL1        0.0807
      2 C          61.9106   86.8465   10.9388 C.3     1  UNL1        0.0415
      3 C          62.0041   85.3680   10.7038 C.3     1  UNL1        0.0925
      4 N          62.7315   84.4972   11.6850 N.pl3   1  UNL1       -0.3074
      5 C          63.3654   85.1049   12.9010 C.3     1  UNL1        0.0925
      6 C          63.2720   86.5835   13.1360 C.3     1  UNL1        0.0415
      7 C          62.8250   83.0186   11.4500 C.ar    1  UNL1        0.0478
      8 C          63.3693   82.4983   10.1527 C.ar    1  UNL1        0.0145
      9 C          63.4627   81.0198    9.9178 C.ar    1  UNL1        0.0051
     10 C          63.0119   80.0616   10.9802 C.ar    1  UNL1        0.0715
     11 C          62.4676   80.5819   12.2774 C.ar    1  UNL1        0.0051
     12 C          62.3742   82.0604   12.5124 C.ar    1  UNL1        0.0145
     13 C          63.1053   78.5830   10.7452 C.3     1  UNL1        0.4186
     14 F          63.1988   77.1045   10.5102 F       1  UNL1       -0.1659
     15 F          62.7687   78.3328   12.1853 F       1  UNL1       -0.1659
     16 F          63.4420   78.8332    9.3051 F       1  UNL1       -0.1659
     17 N          62.4511   88.9328   12.3898 N.pl3   1  UNL1       -0.2872
     18 C          65.9815   91.1748   14.0508 C.ar    1  UNL1        0.0685
     19 C          65.4272   89.9939   14.7911 C.ar    1  UNL1        0.0116
     20 C          64.2504   89.2465   14.2374 C.ar    1  UNL1        0.0155
     21 C          63.6279   89.6801   12.9435 C.ar    1  UNL1        0.0516
     22 C          64.1822   90.8611   12.2032 C.ar    1  UNL1        0.0155
     23 C          65.3590   91.6084   12.7569 C.ar    1  UNL1        0.0116
     24 N          68.3352   92.6695   15.1582 N.1     1  UNL1       -0.1908
     25 C          67.1584   91.9221   14.6045 C.1     1  UNL1        0.1004
     26 C          61.1808   89.6639   12.0710 C.ar    1  UNL1        0.0710
     27 C          59.9271   89.3580   12.8357 C.ar    1  UNL1        0.0180
     28 C          58.6568   90.0892   12.5169 C.ar    1  UNL1        0.0220
     29 C          58.6401   91.1263   11.4334 C.ar    1  UNL1        0.0990
     30 N          59.8937   91.4323   10.6686 N.ar    1  UNL1       -0.2410
     31 C          61.1640   90.7011   10.9874 C.ar    1  UNL1        0.1136
@<TRIPOS>BOND
     1    24    25    3
     2    25    18    1
     3    18    19   ar
     4    19    20   ar
     5    20    21   ar
     6    21    17    1
     7    17    26    1
     8    26    27   ar
     9    27    28   ar
    10    28    29   ar
    11    29    30   ar
    12    30    31   ar
    13    17     1    1
    14     1     2    1
    15     2     3    1
    16     3     4    1
    17     4     7    1
    18     7     8   ar
    19     8     9   ar
    20     9    10   ar
    21    10    13    1
    22    13    14    1
    23    13    15    1
    24    13    16    1
    25    10    11   ar
    26    11    12   ar
    27     4     5    1
    28     5     6    1
    29    21    22   ar
    30    22    23   ar
    31    23    18   ar
    32    31    26   ar
    33     6     1    1
    34    12     7   ar
