@<TRIPOS>MOLECULE
*****
 21 24 0 0 0
SMALL
GASTEIGER

@<TRIPOS>ATOM
      1 N          64.6048   84.3083   15.4479 N.pl3   1  UNL1       -0.1958
      2 H          65.4794   83.9816   15.7605 H       1  UNL1        0.2986
      3 C          64.1899   85.7229   15.7249 C.ar    1  UNL1        0.1357
      4 C          63.3840   86.0421   16.9491 C.ar    1  UNL1        0.0402
      5 C          62.9690   87.4567   17.2262 C.ar    1  UNL1        0.0050
      6 C          63.3600   88.5522   16.2790 C.ar    1  UNL1        0.0194
      7 C          62.9451   89.9667   16.5560 C.ar    1  UNL1        0.0988
      8 N          63.3360   91.0621   15.6088 N.ar    1  UNL1       -0.2423
      9 C          64.1419   90.7430   14.3846 C.ar    1  UNL1        0.0989
     10 C          64.5569   89.3284   14.1076 C.ar    1  UNL1        0.0208
     11 C          64.1659   88.2330   15.0548 C.ar    1  UNL1        0.0064
     12 C          64.5808   86.8184   14.7778 C.ar    1  UNL1        0.0402
     13 C          63.4877   81.9920   10.4456 C.2     1  UNL1        0.0010
     14 C          64.6055   82.9364   10.7753 C.2     1  UNL1        0.0950
     15 N          64.7565   83.4612   12.1723 N.2     1  UNL1       -0.2354
     16 C          63.7897   83.0417   13.2397 C.2     1  UNL1        0.1834
     17 C          63.6872   83.3914   14.6947 C.2     1  UNL1        0.3707
     18 N          62.5060   82.6632   15.2644 N.2     1  UNL1        0.0819
     19 N          61.8785   81.8634   14.1613 N.2     1  UNL1       -0.0365
     20 C          62.6719   82.0974   12.9100 C.2     1  UNL1        0.1346
     21 C          62.5208   81.5725   11.5130 C.3     1  UNL1        0.0792
@<TRIPOS>BOND
     1    13    14    2
     2    14    15    1
     3    15    16    2
     4    16    17    1
     5    17     1    1
     6     1     3    1
     7     3     4   ar
     8     4     5   ar
     9     5     6   ar
    10     6     7   ar
    11     7     8   ar
    12     8     9   ar
    13     9    10   ar
    14    10    11   ar
    15    11    12   ar
    16    17    18    2
    17    18    19    1
    18    19    20    2
    19    20    21    1
    20    21    13    1
    21    20    16    1
    22    12     3   ar
    23    11     6   ar
    24     1     2    1
@<TRIPOS>MOLECULE
*****
 21 24 0 0 0
SMALL
GASTEIGER

@<TRIPOS>ATOM
      1 N          61.5314   89.4072   12.0219 N.pl3   1  UNL1       -0.1958
      2 H          60.7520   89.6601   12.5677 H       1  UNL1        0.2986
      3 C          62.7441   90.2896   11.9918 C.ar    1  UNL1        0.1357
      4 C          63.0941   91.0408   10.7415 C.ar    1  UNL1        0.0402
      5 C          64.3067   91.9232   10.7113 C.ar    1  UNL1        0.0050
      6 C          65.1694   92.0544   11.9314 C.ar    1  UNL1        0.0194
      7 C          66.3820   92.9367   11.9012 C.ar    1  UNL1        0.0988
      8 N          67.2446   93.0679   13.1213 N.ar    1  UNL1       -0.2423
      9 C          66.8946   92.3167   14.3716 C.ar    1  UNL1        0.0989
     10 C          65.6820   91.4343   14.4018 C.ar    1  UNL1        0.0208
     11 C          64.8194   91.3031   13.1817 C.ar    1  UNL1        0.0064
     12 C          63.6067   90.4207   13.2118 C.ar    1  UNL1        0.0402
     13 C          59.5895   86.9400    7.3552 C.2     1  UNL1        0.0010
     14 C          59.3451   88.3514    7.8004 C.2     1  UNL1        0.0950
     15 N          59.9448   88.8479    9.0825 N.2     1  UNL1       -0.2354
     16 C          60.7889   87.9330    9.9193 C.2     1  UNL1        0.1834
     17 C          61.5062   88.1395   11.2204 C.2     1  UNL1        0.3707
     18 N          62.1940   86.8556   11.5794 N.2     1  UNL1        0.0819
     19 N          61.9016   85.8557   10.5001 N.2     1  UNL1       -0.0365
     20 C          61.0333   86.5216    9.4741 C.2     1  UNL1        0.1346
     21 C          60.4336   86.0251    8.1921 C.3     1  UNL1        0.0792
@<TRIPOS>BOND
     1    13    14    2
     2    14    15    1
     3    15    16    2
     4    16    17    1
     5    17     1    1
     6     1     3    1
     7     3     4   ar
     8     4     5   ar
     9     5     6   ar
    10     6     7   ar
    11     7     8   ar
    12     8     9   ar
    13     9    10   ar
    14    10    11   ar
    15    11    12   ar
    16    17    18    2
    17    18    19    1
    18    19    20    2
    19    20    21    1
    20    21    13    1
    21    20    16    1
    22    12     3   ar
    23    11     6   ar
    24     1     2    1
@<TRIPOS>MOLECULE
*****
 21 24 0 0 0
SMALL
GASTEIGER

@<TRIPOS>ATOM
      1 N          61.7593   88.9101   11.8703 N.pl3   1  UNL1       -0.1958
      2 H          60.9265   89.0458   12.3775 H       1  UNL1        0.2986
      3 C          62.8281   89.9625   11.8877 C.ar    1  UNL1        0.1357
      4 C          63.0692   90.8068   10.6715 C.ar    1  UNL1        0.0402
      5 C          64.1379   91.8591   10.6889 C.ar    1  UNL1        0.0050
      6 C          64.9656   92.0673   11.9225 C.ar    1  UNL1        0.0194
      7 C          66.0343   93.1196   11.9399 C.ar    1  UNL1        0.0988
      8 N          66.8619   93.3277   13.1735 N.ar    1  UNL1       -0.2423
      9 C          66.6208   92.4835   14.3897 C.ar    1  UNL1        0.0989
     10 C          65.5521   91.4311   14.3723 C.ar    1  UNL1        0.0208
     11 C          64.7245   91.2230   13.1387 C.ar    1  UNL1        0.0064
     12 C          63.6557   90.1706   13.1213 C.ar    1  UNL1        0.0402
     13 C          63.6657   83.6208   12.0282 C.2     1  UNL1        0.0010
     14 C          63.6612   84.6141   13.1521 C.2     1  UNL1        0.0950
     15 N          63.1101   85.9919   12.9332 N.2     1  UNL1       -0.2354
     16 C          62.5635   86.3764   11.5902 C.2     1  UNL1        0.1834
     17 C          61.9594   87.6510   11.0800 C.2     1  UNL1        0.3707
     18 N          61.5905   87.4454    9.6406 N.2     1  UNL1        0.0819
     19 N          61.9667   86.0437    9.2614 N.2     1  UNL1       -0.0365
     20 C          62.5681   85.3830   10.4663 C.2     1  UNL1        0.1346
     21 C          63.1191   84.0053   10.6852 C.3     1  UNL1        0.0792
@<TRIPOS>BOND
     1    13    14    2
     2    14    15    1
     3    15    16    2
     4    16    17    1
     5    17     1    1
     6     1     3    1
     7     3     4   ar
     8     4     5   ar
     9     5     6   ar
    10     6     7   ar
    11     7     8   ar
    12     8     9   ar
    13     9    10   ar
    14    10    11   ar
    15    11    12   ar
    16    17    18    2
    17    18    19    1
    18    19    20    2
    19    20    21    1
    20    21    13    1
    21    20    16    1
    22    12     3   ar
    23    11     6   ar
    24     1     2    1
@<TRIPOS>MOLECULE
*****
 21 24 0 0 0
SMALL
GASTEIGER

@<TRIPOS>ATOM
      1 N          61.2911   87.8460   11.0285 N.pl3   1  UNL1       -0.1958
      2 H          60.3124   87.8540   11.1350 H       1  UNL1        0.2986
      3 C          62.0122   86.5474   10.8186 C.ar    1  UNL1        0.1357
      4 C          62.3839   86.1116    9.4323 C.ar    1  UNL1        0.0402
      5 C          63.1049   84.8131    9.2224 C.ar    1  UNL1        0.0050
      6 C          63.4542   83.9504   10.3988 C.ar    1  UNL1        0.0194
      7 C          64.1752   82.6519   10.1888 C.ar    1  UNL1        0.0988
      8 N          64.5244   81.7893   11.3652 N.ar    1  UNL1       -0.2423
      9 C          64.1527   82.2252   12.7515 C.ar    1  UNL1        0.0989
     10 C          63.4317   83.5236   12.9615 C.ar    1  UNL1        0.0208
     11 C          63.0824   84.3863   11.7851 C.ar    1  UNL1        0.0064
     12 C          62.3614   85.6848   11.9950 C.ar    1  UNL1        0.0402
     13 C          64.9762   90.9074   13.9755 C.2     1  UNL1        0.0010
     14 C          64.4333   89.5556   14.3331 C.2     1  UNL1        0.0950
     15 N          63.4504   88.8779   13.4250 N.2     1  UNL1       -0.2354
     16 C          63.0104   89.5520   12.1593 C.2     1  UNL1        0.1834
     17 C          62.0613   89.1322   11.0762 C.2     1  UNL1        0.3707
     18 N          62.0176   90.2247   10.0492 N.2     1  UNL1        0.0819
     19 N          62.9397   91.3195   10.4976 N.2     1  UNL1       -0.0365
     20 C          63.5533   90.9038   11.8017 C.2     1  UNL1        0.1346
     21 C          64.5361   91.5815   12.7097 C.3     1  UNL1        0.0792
@<TRIPOS>BOND
     1    13    14    2
     2    14    15    1
     3    15    16    2
     4    16    17    1
     5    17     1    1
     6     1     3    1
     7     3     4   ar
     8     4     5   ar
     9     5     6   ar
    10     6     7   ar
    11     7     8   ar
    12     8     9   ar
    13     9    10   ar
    14    10    11   ar
    15    11    12   ar
    16    17    18    2
    17    18    19    1
    18    19    20    2
    19    20    21    1
    20    21    13    1
    21    20    16    1
    22    12     3   ar
    23    11     6   ar
    24     1     2    1
@<TRIPOS>MOLECULE
*****
 21 24 0 0 0
SMALL
GASTEIGER

@<TRIPOS>ATOM
      1 N          63.0924   85.4592   12.1948 N.pl3   1  UNL1       -0.1958
      2 H          63.4583   85.7633   13.0567 H       1  UNL1        0.2986
      3 C          62.3751   86.4272   11.3011 C.ar    1  UNL1        0.1357
      4 C          62.5891   87.9024   11.4683 C.ar    1  UNL1        0.0402
      5 C          61.8719   88.8703   10.5747 C.ar    1  UNL1        0.0050
      6 C          60.9406   88.3631    9.5138 C.ar    1  UNL1        0.0194
      7 C          60.2234   89.3310    8.6202 C.ar    1  UNL1        0.0988
      8 N          59.2921   88.8237    7.5593 N.ar    1  UNL1       -0.2423
      9 C          59.0782   87.3485    7.3921 C.ar    1  UNL1        0.0989
     10 C          59.7954   86.3806    8.2857 C.ar    1  UNL1        0.0208
     11 C          60.7266   86.8879    9.3466 C.ar    1  UNL1        0.0064
     12 C          61.4439   85.9199   10.2403 C.ar    1  UNL1        0.0402
     13 C          62.0450   80.1067   13.5694 C.2     1  UNL1        0.0010
     14 C          61.6716   81.3308   14.3519 C.2     1  UNL1        0.0950
     15 N          62.0323   82.6913   13.8334 N.2     1  UNL1       -0.2354
     16 C          62.7664   82.8277   12.5325 C.2     1  UNL1        0.1834
     17 C          63.2522   84.0280   11.7753 C.2     1  UNL1        0.3707
     18 N          63.9259   83.5457   10.5247 N.2     1  UNL1        0.0819
     19 N          63.8563   82.0474   10.5092 N.2     1  UNL1       -0.0365
     20 C          63.1398   81.6037   11.7500 C.2     1  UNL1        0.1346
     21 C          62.7791   80.2432   12.2684 C.3     1  UNL1        0.0792
@<TRIPOS>BOND
     1    13    14    2
     2    14    15    1
     3    15    16    2
     4    16    17    1
     5    17     1    1
     6     1     3    1
     7     3     4   ar
     8     4     5   ar
     9     5     6   ar
    10     6     7   ar
    11     7     8   ar
    12     8     9   ar
    13     9    10   ar
    14    10    11   ar
    15    11    12   ar
    16    17    18    2
    17    18    19    1
    18    19    20    2
    19    20    21    1
    20    21    13    1
    21    20    16    1
    22    12     3   ar
    23    11     6   ar
    24     1     2    1
@<TRIPOS>MOLECULE
*****
 21 24 0 0 0
SMALL
GASTEIGER

@<TRIPOS>ATOM
      1 N          62.8515   85.6151    8.9471 N.pl3   1  UNL1       -0.1958
      2 H          63.4546   85.6487    8.1697 H       1  UNL1        0.2986
      3 C          63.1142   84.6428   10.0588 C.ar    1  UNL1        0.1357
      4 C          63.8661   83.3744    9.7837 C.ar    1  UNL1        0.0402
      5 C          64.1288   82.4021   10.8952 C.ar    1  UNL1        0.0050
      6 C          63.6396   82.6982   12.2820 C.ar    1  UNL1        0.0194
      7 C          63.9023   81.7260   13.3935 C.ar    1  UNL1        0.0988
      8 N          63.4131   82.0221   14.7802 N.ar    1  UNL1       -0.2423
      9 C          62.6612   83.2906   15.0553 C.ar    1  UNL1        0.0989
     10 C          62.3985   84.2628   13.9438 C.ar    1  UNL1        0.0208
     11 C          62.8877   83.9667   12.5571 C.ar    1  UNL1        0.0064
     12 C          62.6250   84.9390   11.4455 C.ar    1  UNL1        0.0402
     13 C          60.9425   90.5177   10.9364 C.2     1  UNL1        0.0010
     14 C          62.3142   89.9396   11.1211 C.2     1  UNL1        0.0950
     15 N          62.6553   88.6098   10.5168 N.2     1  UNL1       -0.2354
     16 C          61.6246   87.8580    9.7279 C.2     1  UNL1        0.1834
     17 C          61.6699   86.5363    9.0200 C.2     1  UNL1        0.3707
     18 N          60.3260   86.2974    8.3978 N.2     1  UNL1        0.0819
     19 N          59.4503   87.4716    8.7212 N.2     1  UNL1       -0.0365
     20 C          60.2528   88.4360    9.5432 C.2     1  UNL1        0.1346
     21 C          59.9117   89.7658   10.1474 C.3     1  UNL1        0.0792
@<TRIPOS>BOND
     1    13    14    2
     2    14    15    1
     3    15    16    2
     4    16    17    1
     5    17     1    1
     6     1     3    1
     7     3     4   ar
     8     4     5   ar
     9     5     6   ar
    10     6     7   ar
    11     7     8   ar
    12     8     9   ar
    13     9    10   ar
    14    10    11   ar
    15    11    12   ar
    16    17    18    2
    17    18    19    1
    18    19    20    2
    19    20    21    1
    20    21    13    1
    21    20    16    1
    22    12     3   ar
    23    11     6   ar
    24     1     2    1
@<TRIPOS>MOLECULE
*****
 21 24 0 0 0
SMALL
GASTEIGER

@<TRIPOS>ATOM
      1 N          63.4071   86.3248   12.7180 N.pl3   1  UNL1       -0.1958
      2 H          64.2061   86.7473   13.1083 H       1  UNL1        0.2986
      3 C          62.6002   87.0562   11.6864 C.ar    1  UNL1        0.1357
      4 C          62.6201   88.5554   11.6431 C.ar    1  UNL1        0.0402
      5 C          61.8133   89.2868   10.6116 C.ar    1  UNL1        0.0050
      6 C          60.9864   88.5189    9.6233 C.ar    1  UNL1        0.0194
      7 C          60.1796   89.2502    8.5918 C.ar    1  UNL1        0.0988
      8 N          59.3528   88.4823    7.6035 N.ar    1  UNL1       -0.2423
      9 C          59.3328   86.9831    7.6468 C.ar    1  UNL1        0.0989
     10 C          60.1397   86.2517    8.6783 C.ar    1  UNL1        0.0208
     11 C          60.9665   87.0196    9.6666 C.ar    1  UNL1        0.0064
     12 C          61.7734   86.2883   10.6981 C.ar    1  UNL1        0.0402
     13 C          63.2063   80.8938   11.2688 C.2     1  UNL1        0.0010
     14 C          63.7495   82.0282   10.4514 C.2     1  UNL1        0.0950
     15 N          63.7239   83.4252   10.9969 N.2     1  UNL1       -0.2354
     16 C          63.1550   83.6879   12.3597 C.2     1  UNL1        0.1834
     17 C          62.9965   84.9499   13.1549 C.2     1  UNL1        0.3707
     18 N          62.3553   84.5954   14.4639 N.2     1  UNL1        0.0819
     19 N          62.1175   83.1144   14.4775 N.2     1  UNL1       -0.0365
     20 C          62.6118   82.5536   13.1771 C.2     1  UNL1        0.1346
     21 C          62.6374   81.1565   12.6317 C.3     1  UNL1        0.0792
@<TRIPOS>BOND
     1    13    14    2
     2    14    15    1
     3    15    16    2
     4    16    17    1
     5    17     1    1
     6     1     3    1
     7     3     4   ar
     8     4     5   ar
     9     5     6   ar
    10     6     7   ar
    11     7     8   ar
    12     8     9   ar
    13     9    10   ar
    14    10    11   ar
    15    11    12   ar
    16    17    18    2
    17    18    19    1
    18    19    20    2
    19    20    21    1
    20    21    13    1
    21    20    16    1
    22    12     3   ar
    23    11     6   ar
    24     1     2    1
@<TRIPOS>MOLECULE
*****
 21 24 0 0 0
SMALL
GASTEIGER

@<TRIPOS>ATOM
      1 N          63.5616   90.1514   16.0054 N.pl3   1  UNL1       -0.1958
      2 H          63.2946   90.6962   16.7807 H       1  UNL1        0.2986
      3 C          63.5078   88.6545   16.0864 C.ar    1  UNL1        0.1357
      4 C          62.7940   87.9903   17.2263 C.ar    1  UNL1        0.0402
      5 C          62.7401   86.4935   17.3073 C.ar    1  UNL1        0.0050
      6 C          63.4001   85.6608   16.2484 C.ar    1  UNL1        0.0194
      7 C          63.3462   84.1640   16.3294 C.ar    1  UNL1        0.0988
      8 N          64.0061   83.3314   15.2705 N.ar    1  UNL1       -0.2423
      9 C          64.7199   83.9956   14.1307 C.ar    1  UNL1        0.0989
     10 C          64.7738   85.4924   14.0497 C.ar    1  UNL1        0.0208
     11 C          64.1139   86.3250   15.1085 C.ar    1  UNL1        0.0064
     12 C          64.1677   87.8219   15.0275 C.ar    1  UNL1        0.0402
     13 C          62.7470   90.5842   10.4570 C.2     1  UNL1        0.0010
     14 C          61.9877   89.7175   11.4174 C.2     1  UNL1        0.0950
     15 N          62.3406   89.7258   12.8752 N.2     1  UNL1       -0.2354
     16 C          63.4526   90.6009   13.3727 C.2     1  UNL1        0.1834
     17 C          64.0224   90.8181   14.7432 C.2     1  UNL1        0.3707
     18 N          65.1338   91.8191   14.6299 N.2     1  UNL1        0.0819
     19 N          65.2509   92.2205   13.1893 N.2     1  UNL1       -0.0365
     20 C          64.2119   91.4676   12.4123 C.2     1  UNL1        0.1346
     21 C          63.8591   91.4593   10.9545 C.3     1  UNL1        0.0792
@<TRIPOS>BOND
     1    13    14    2
     2    14    15    1
     3    15    16    2
     4    16    17    1
     5    17     1    1
     6     1     3    1
     7     3     4   ar
     8     4     5   ar
     9     5     6   ar
    10     6     7   ar
    11     7     8   ar
    12     8     9   ar
    13     9    10   ar
    14    10    11   ar
    15    11    12   ar
    16    17    18    2
    17    18    19    1
    18    19    20    2
    19    20    21    1
    20    21    13    1
    21    20    16    1
    22    12     3   ar
    23    11     6   ar
    24     1     2    1
@<TRIPOS>MOLECULE
*****
 21 24 0 0 0
SMALL
GASTEIGER

@<TRIPOS>ATOM
      1 N          64.0555   90.0414   15.3928 N.pl3   1  UNL1       -0.1958
      2 H          64.1980   90.6558   16.1488 H       1  UNL1        0.2986
      3 C          63.8116   88.5833   15.6472 C.ar    1  UNL1        0.1357
      4 C          63.0538   88.1514   16.8675 C.ar    1  UNL1        0.0402
      5 C          62.8099   86.6934   17.1219 C.ar    1  UNL1        0.0050
      6 C          63.3237   85.6673   16.1559 C.ar    1  UNL1        0.0194
      7 C          63.0798   84.2093   16.4102 C.ar    1  UNL1        0.0988
      8 N          63.5936   83.1833   15.4442 N.ar    1  UNL1       -0.2423
      9 C          64.3514   83.6152   14.2239 C.ar    1  UNL1        0.0989
     10 C          64.5953   85.0732   13.9695 C.ar    1  UNL1        0.0208
     11 C          64.0815   86.0992   14.9355 C.ar    1  UNL1        0.0064
     12 C          64.3254   87.5573   14.6812 C.ar    1  UNL1        0.0402
     13 C          66.2544   93.9083   11.9506 C.2     1  UNL1        0.0010
     14 C          66.5335   93.7376   13.4145 C.2     1  UNL1        0.0950
     15 N          65.8540   92.6447   14.1852 N.2     1  UNL1       -0.2354
     16 C          64.8955   91.7225   13.4919 C.2     1  UNL1        0.1834
     17 C          64.0823   90.5632   13.9868 C.2     1  UNL1        0.3707
     18 N          63.3005   90.0174   12.8287 N.2     1  UNL1        0.0819
     19 N          63.6306   90.8394   11.6181 N.2     1  UNL1       -0.0365
     20 C          64.6163   91.8932   12.0280 C.2     1  UNL1        0.1346
     21 C          65.2957   92.9860   11.2574 C.3     1  UNL1        0.0792
@<TRIPOS>BOND
     1    13    14    2
     2    14    15    1
     3    15    16    2
     4    16    17    1
     5    17     1    1
     6     1     3    1
     7     3     4   ar
     8     4     5   ar
     9     5     6   ar
    10     6     7   ar
    11     7     8   ar
    12     8     9   ar
    13     9    10   ar
    14    10    11   ar
    15    11    12   ar
    16    17    18    2
    17    18    19    1
    18    19    20    2
    19    20    21    1
    20    21    13    1
    21    20    16    1
    22    12     3   ar
    23    11     6   ar
    24     1     2    1
