@<TRIPOS>MOLECULE
*****
 32 34 0 0 0
SMALL
GASTEIGER

@<TRIPOS>ATOM
      1 C          66.3155   91.1245   15.4657 C.3     1  UNL1        0.0044
      2 C          66.4360   92.3737   14.6440 C.3     1  UNL1        0.0187
      3 C          67.2792   92.7559   15.8242 C.3     1  UNL1        0.0044
      4 C          66.8492   93.7556   14.2323 C.3     1  UNL1        0.0044
      5 C          66.3774   94.3215   12.9257 C.3     1  UNL1        0.0044
      6 C          65.4923   93.5055   12.0308 C.3     1  UNL1        0.0195
      7 C          65.6128   94.7547   11.2092 C.3     1  UNL1        0.0044
      8 C          64.6491   93.1233   10.8506 C.3     1  UNL1        0.0044
      9 C          65.0791   92.1236   12.4426 C.ar    1  UNL1       -0.0132
     10 C          65.5509   91.5577   13.7492 C.ar    1  UNL1       -0.0256
     11 C          65.1376   90.1758   14.1609 C.ar    1  UNL1        0.0030
     12 C          64.2525   89.3598   13.2661 C.ar    1  UNL1        0.0878
     13 C          63.7807   89.9257   11.9595 C.ar    1  UNL1        0.1481
     14 O          62.8956   89.1096   11.0646 O.3     1  UNL1       -0.5045
     15 C          64.1940   91.3075   11.5477 C.ar    1  UNL1        0.0871
     16 CL         63.7222   91.8734   10.2412 Cl      1  UNL1       -0.0794
     17 H          62.6374   88.2464   11.3219 H       1  UNL1        0.2922
     18 C          63.8392   87.9778   13.6778 C.2     1  UNL1        0.2525
     19 O          63.6145   87.6627   15.1270 O.2     1  UNL1       -0.2697
     20 N          63.6506   86.9111   12.6403 N.am    1  UNL1       -0.2802
     21 H          63.7981   87.1179   11.6892 H       1  UNL1        0.1552
     22 C          63.2373   85.5292   13.0520 C.ar    1  UNL1        0.0550
     23 C          63.0257   85.2104   14.5024 C.ar    1  UNL1        0.0445
     24 C          62.6124   83.8285   14.9140 C.ar    1  UNL1        0.1446
     25 F          62.4008   83.5098   16.3644 F       1  UNL1       -0.2040
     26 C          62.4107   82.7653   13.8753 C.ar    1  UNL1        0.0689
     27 C          62.6223   83.0840   12.4249 C.ar    1  UNL1        0.1446
     28 F          62.4206   82.0209   11.3862 F       1  UNL1       -0.2040
     29 C          63.0356   84.4660   12.0133 C.ar    1  UNL1        0.0445
     30 C          61.9974   81.3834   14.2870 C.2     1  UNL1        0.0772
     31 O          60.5448   81.0593   14.4735 O.co2   1  UNL1       -0.5444
     32 O          63.0368   80.3256   14.5121 O.co2   1  UNL1       -0.5444
@<TRIPOS>UNITY_ATOM_ATTR
31 1
charge -1
@<TRIPOS>BOND
     1     1     2    1
     2     2     3    1
     3     2     4    1
     4     4     5    1
     5     5     6    1
     6     6     7    1
     7     6     8    1
     8     6     9    1
     9     9    10   ar
    10    10    11   ar
    11    11    12   ar
    12    12    18    1
    13    18    19    2
    14    18    20   am
    15    20    22    1
    16    22    23   ar
    17    23    24   ar
    18    24    25    1
    19    24    26   ar
    20    26    30    1
    21    30    31   ar
    22    30    32   ar
    23    26    27   ar
    24    27    28    1
    25    27    29   ar
    26    12    13   ar
    27    13    14    1
    28    13    15   ar
    29    15    16    1
    30    10     2    1
    31    29    22   ar
    32    15     9   ar
    33    20    21    1
    34    14    17    1
@<TRIPOS>MOLECULE
*****
 32 34 0 0 0
SMALL
GASTEIGER

@<TRIPOS>ATOM
      1 C          63.8704   86.5779   12.6193 C.3     1  UNL1        0.0044
      2 C          63.5282   86.0044   13.9625 C.3     1  UNL1        0.0187
      3 C          63.5426   84.7502   13.1398 C.3     1  UNL1        0.0044
      4 C          63.1911   84.9955   15.0200 C.3     1  UNL1        0.0044
      5 C          62.9584   85.4398   16.4336 C.3     1  UNL1        0.0044
      6 C          63.0628   86.8931   16.7898 C.3     1  UNL1        0.0195
      7 C          62.7207   86.3197   18.1330 C.3     1  UNL1        0.0044
      8 C          63.0485   88.1474   17.6125 C.3     1  UNL1        0.0044
      9 C          63.4000   87.9021   15.7323 C.ar    1  UNL1       -0.0132
     10 C          63.6327   87.4578   14.3187 C.ar    1  UNL1       -0.0256
     11 C          63.9699   88.4668   13.2612 C.ar    1  UNL1        0.0030
     12 C          64.0744   89.9201   13.6174 C.ar    1  UNL1        0.0878
     13 C          63.8417   90.3645   15.0310 C.ar    1  UNL1        0.1481
     14 O          63.9462   91.8179   15.3872 O.3     1  UNL1       -0.5045
     15 C          63.5045   89.3555   16.0885 C.ar    1  UNL1        0.0871
     16 CL         63.2718   89.7999   17.5021 Cl      1  UNL1       -0.0794
     17 H          64.1568   92.4482   14.7266 H       1  UNL1        0.2922
     18 C          64.4115   90.9292   12.5599 C.2     1  UNL1        0.2525
     19 O          63.4748   91.1518   11.4098 O.2     1  UNL1       -0.2697
     20 N          65.6855   91.7155   12.6526 N.am    1  UNL1       -0.2802
     21 H          66.3004   91.5694   13.4075 H       1  UNL1        0.1552
     22 C          66.0227   92.7246   11.5952 C.ar    1  UNL1        0.0550
     23 C          65.3722   94.0760   11.6135 C.ar    1  UNL1        0.0445
     24 C          65.7094   95.0850   10.5561 C.ar    1  UNL1        0.1446
     25 F          65.0589   96.4365   10.5743 F       1  UNL1       -0.2040
     26 C          66.6972   94.7426    9.4803 C.ar    1  UNL1        0.0689
     27 C          67.3477   93.3911    9.4621 C.ar    1  UNL1        0.1446
     28 F          68.3354   93.0486    8.3864 F       1  UNL1       -0.2040
     29 C          67.0104   92.3821   10.5196 C.ar    1  UNL1        0.0445
     30 C          67.0344   95.7516    8.4229 C.2     1  UNL1        0.0772
     31 O          66.4007   95.6570    7.0666 O.co2   1  UNL1       -0.5444
     32 O          68.0052   96.8552    8.7218 O.co2   1  UNL1       -0.5444
@<TRIPOS>UNITY_ATOM_ATTR
31 1
charge -1
@<TRIPOS>BOND
     1     1     2    1
     2     2     3    1
     3     2     4    1
     4     4     5    1
     5     5     6    1
     6     6     7    1
     7     6     8    1
     8     6     9    1
     9     9    10   ar
    10    10    11   ar
    11    11    12   ar
    12    12    18    1
    13    18    19    2
    14    18    20   am
    15    20    22    1
    16    22    23   ar
    17    23    24   ar
    18    24    25    1
    19    24    26   ar
    20    26    30    1
    21    30    31   ar
    22    30    32   ar
    23    26    27   ar
    24    27    28    1
    25    27    29   ar
    26    12    13   ar
    27    13    14    1
    28    13    15   ar
    29    15    16    1
    30    10     2    1
    31    29    22   ar
    32    15     9   ar
    33    20    21    1
    34    14    17    1
@<TRIPOS>MOLECULE
*****
 32 34 0 0 0
SMALL
GASTEIGER

@<TRIPOS>ATOM
      1 C          59.7285   92.6092    2.4417 C.3     1  UNL1        0.0044
      2 C          61.2284   92.5969    2.4533 C.3     1  UNL1        0.0187
      3 C          60.9527   92.0255    3.8126 C.3     1  UNL1        0.0044
      4 C          62.6326   92.3863    2.9370 C.3     1  UNL1        0.0044
      5 C          63.7915   92.7513    2.0574 C.3     1  UNL1        0.0044
      6 C          63.5463   93.3269    0.6941 C.3     1  UNL1        0.0195
      7 C          65.0462   93.3147    0.7057 C.3     1  UNL1        0.0044
      8 C          63.8219   93.8983   -0.6651 C.3     1  UNL1        0.0044
      9 C          62.1421   93.5376    0.2105 C.ar    1  UNL1       -0.0132
     10 C          60.9832   93.1726    1.0901 C.ar    1  UNL1       -0.0256
     11 C          59.5790   93.3833    0.6064 C.ar    1  UNL1        0.0030
     12 C          59.3338   93.9589   -0.7568 C.ar    1  UNL1        0.0878
     13 C          60.4927   94.3239   -1.6364 C.ar    1  UNL1        0.1481
     14 O          60.2474   94.8996   -2.9997 O.3     1  UNL1       -0.5045
     15 C          61.8968   94.1132   -1.1528 C.ar    1  UNL1        0.0871
     16 CL         63.0557   94.4782   -2.0324 Cl      1  UNL1       -0.0794
     17 H          59.3702   95.0312   -3.3018 H       1  UNL1        0.2922
     18 C          57.9296   94.1696   -1.2405 C.2     1  UNL1        0.2525
     19 O          56.8539   93.1923   -0.8694 O.2     1  UNL1       -0.2697
     20 N          57.6011   95.3576   -2.0954 N.am    1  UNL1       -0.2802
     21 H          58.3071   95.9990   -2.3390 H       1  UNL1        0.1552
     22 C          56.1970   95.5683   -2.5791 C.ar    1  UNL1        0.0550
     23 C          55.1454   96.0695   -1.6341 C.ar    1  UNL1        0.0445
     24 C          53.7413   96.2802   -2.1178 C.ar    1  UNL1        0.1446
     25 F          52.6898   96.7814   -1.1728 F       1  UNL1       -0.2040
     26 C          53.3887   95.9897   -3.5466 C.ar    1  UNL1        0.0689
     27 C          54.4403   95.4886   -4.4916 C.ar    1  UNL1        0.1446
     28 F          54.0877   95.1981   -5.9203 F       1  UNL1       -0.2040
     29 C          55.8444   95.2778   -4.0078 C.ar    1  UNL1        0.0445
     30 C          51.9846   96.2004   -4.0303 C.2     1  UNL1        0.0772
     31 O          50.8262   95.7560   -3.1872 O.co2   1  UNL1       -0.5444
     32 O          51.7388   96.8556   -5.3570 O.co2   1  UNL1       -0.5444
@<TRIPOS>UNITY_ATOM_ATTR
31 1
charge -1
@<TRIPOS>BOND
     1     1     2    1
     2     2     3    1
     3     2     4    1
     4     4     5    1
     5     5     6    1
     6     6     7    1
     7     6     8    1
     8     6     9    1
     9     9    10   ar
    10    10    11   ar
    11    11    12   ar
    12    12    18    1
    13    18    19    2
    14    18    20   am
    15    20    22    1
    16    22    23   ar
    17    23    24   ar
    18    24    25    1
    19    24    26   ar
    20    26    30    1
    21    30    31   ar
    22    30    32   ar
    23    26    27   ar
    24    27    28    1
    25    27    29   ar
    26    12    13   ar
    27    13    14    1
    28    13    15   ar
    29    15    16    1
    30    10     2    1
    31    29    22   ar
    32    15     9   ar
    33    20    21    1
    34    14    17    1
@<TRIPOS>MOLECULE
*****
 32 34 0 0 0
SMALL
GASTEIGER

@<TRIPOS>ATOM
      1 C          63.3079   85.8211    9.9483 C.3     1  UNL1        0.0044
      2 C          62.1332   85.7735    9.0168 C.3     1  UNL1        0.0187
      3 C          62.7461   84.4344    8.7317 C.3     1  UNL1        0.0044
      4 C          61.1713   85.2609    7.9863 C.3     1  UNL1        0.0044
      5 C          60.0045   86.1039    7.5643 C.3     1  UNL1        0.0044
      6 C          59.7996   87.4595    8.1728 C.3     1  UNL1        0.0195
      7 C          58.6249   87.4119    7.2413 C.3     1  UNL1        0.0044
      8 C          59.1867   88.7986    8.4578 C.3     1  UNL1        0.0044
      9 C          60.7615   87.9721    9.2033 C.ar    1  UNL1       -0.0132
     10 C          61.9283   87.1291    9.6253 C.ar    1  UNL1       -0.0256
     11 C          62.8902   87.6418   10.6558 C.ar    1  UNL1        0.0030
     12 C          62.6853   88.9974   11.2644 C.ar    1  UNL1        0.0878
     13 C          61.5185   89.8404   10.8424 C.ar    1  UNL1        0.1481
     14 O          61.3136   91.1960   11.4510 O.3     1  UNL1       -0.5045
     15 C          60.5566   89.3277    9.8119 C.ar    1  UNL1        0.0871
     16 CL         59.3899   90.1707    9.3899 Cl      1  UNL1       -0.0794
     17 H          61.9145   91.5162   12.0947 H       1  UNL1        0.2922
     18 C          63.6472   89.5101   12.2949 C.2     1  UNL1        0.2525
     19 O          63.9778   88.6726   13.4946 O.2     1  UNL1       -0.2697
     20 N          64.2784   90.8603   12.1257 N.am    1  UNL1       -0.2802
     21 H          64.0614   91.4099   11.3383 H       1  UNL1        0.1552
     22 C          65.2402   91.3730   13.1562 C.ar    1  UNL1        0.0550
     23 C          66.6880   91.5525   12.8073 C.ar    1  UNL1        0.0445
     24 C          67.6499   92.0652   13.8377 C.ar    1  UNL1        0.1446
     25 F          69.0976   92.2447   13.4888 F       1  UNL1       -0.2040
     26 C          67.1639   92.3984   15.2172 C.ar    1  UNL1        0.0689
     27 C          65.7162   92.2189   15.5662 C.ar    1  UNL1        0.1446
     28 F          65.2303   92.5521   16.9456 F       1  UNL1       -0.2040
     29 C          64.7543   91.7062   14.5356 C.ar    1  UNL1        0.0445
     30 C          68.1258   92.9111   16.2477 C.2     1  UNL1        0.0772
     31 O          68.4314   94.3776   16.3246 O.co2   1  UNL1       -0.5444
     32 O          68.7821   91.9573   17.2014 O.co2   1  UNL1       -0.5444
@<TRIPOS>UNITY_ATOM_ATTR
31 1
charge -1
@<TRIPOS>BOND
     1     1     2    1
     2     2     3    1
     3     2     4    1
     4     4     5    1
     5     5     6    1
     6     6     7    1
     7     6     8    1
     8     6     9    1
     9     9    10   ar
    10    10    11   ar
    11    11    12   ar
    12    12    18    1
    13    18    19    2
    14    18    20   am
    15    20    22    1
    16    22    23   ar
    17    23    24   ar
    18    24    25    1
    19    24    26   ar
    20    26    30    1
    21    30    31   ar
    22    30    32   ar
    23    26    27   ar
    24    27    28    1
    25    27    29   ar
    26    12    13   ar
    27    13    14    1
    28    13    15   ar
    29    15    16    1
    30    10     2    1
    31    29    22   ar
    32    15     9   ar
    33    20    21    1
    34    14    17    1
@<TRIPOS>MOLECULE
*****
 32 34 0 0 0
SMALL
GASTEIGER

@<TRIPOS>ATOM
      1 C          63.2977   85.8181    9.9381 C.3     1  UNL1        0.0044
      2 C          62.1286   85.7689    8.9997 C.3     1  UNL1        0.0187
      3 C          62.7415   84.4281    8.7228 C.3     1  UNL1        0.0044
      4 C          61.1723   85.2540    7.9651 C.3     1  UNL1        0.0044
      5 C          60.0091   86.0970    7.5333 C.3     1  UNL1        0.0044
      6 C          59.8022   87.4548    8.1361 C.3     1  UNL1        0.0195
      7 C          58.6330   87.4056    7.1976 C.3     1  UNL1        0.0044
      8 C          59.1893   88.7956    8.4130 C.3     1  UNL1        0.0044
      9 C          60.7585   87.9697    9.1707 C.ar    1  UNL1       -0.0132
     10 C          61.9217   87.1267    9.6025 C.ar    1  UNL1       -0.0256
     11 C          62.8780   87.6417   10.6371 C.ar    1  UNL1        0.0030
     12 C          62.6710   88.9995   11.2399 C.ar    1  UNL1        0.0878
     13 C          61.5079   89.8425   10.8081 C.ar    1  UNL1        0.1481
     14 O          61.3010   91.2004   11.4110 O.3     1  UNL1       -0.5045
     15 C          60.5516   89.3276    9.7735 C.ar    1  UNL1        0.0871
     16 CL         59.3884   90.1706    9.3418 Cl      1  UNL1       -0.0794
     17 H          61.8984   91.5220   12.0573 H       1  UNL1        0.2922
     18 C          63.6273   89.5145   12.2745 C.2     1  UNL1        0.2525
     19 O          63.9410   88.6855   13.4846 O.2     1  UNL1       -0.2697
     20 N          64.2700   90.8584   12.0990 N.am    1  UNL1       -0.2802
     21 H          64.0641   91.4025   11.3048 H       1  UNL1        0.1552
     22 C          65.2262   91.3734   13.1336 C.ar    1  UNL1        0.0550
     23 C          64.7337   91.7053   14.5110 C.ar    1  UNL1        0.0445
     24 C          65.6900   92.2202   15.5456 C.ar    1  UNL1        0.1446
     25 F          65.1975   92.5521   16.9230 F       1  UNL1       -0.2040
     26 C          67.1388   92.4033   15.2027 C.ar    1  UNL1        0.0689
     27 C          67.6313   92.0714   13.8253 C.ar    1  UNL1        0.1446
     28 F          69.0800   92.2545   13.4824 F       1  UNL1       -0.2040
     29 C          66.6749   91.5564   12.7907 C.ar    1  UNL1        0.0445
     30 C          68.0950   92.9183   16.2373 C.2     1  UNL1        0.0772
     31 O          68.4164   94.3822   16.2990 O.co2   1  UNL1       -0.5444
     32 O          68.7299   91.9694   17.2101 O.co2   1  UNL1       -0.5444
@<TRIPOS>UNITY_ATOM_ATTR
31 1
charge -1
@<TRIPOS>BOND
     1     1     2    1
     2     2     3    1
     3     2     4    1
     4     4     5    1
     5     5     6    1
     6     6     7    1
     7     6     8    1
     8     6     9    1
     9     9    10   ar
    10    10    11   ar
    11    11    12   ar
    12    12    18    1
    13    18    19    2
    14    18    20   am
    15    20    22    1
    16    22    23   ar
    17    23    24   ar
    18    24    25    1
    19    24    26   ar
    20    26    30    1
    21    30    31   ar
    22    30    32   ar
    23    26    27   ar
    24    27    28    1
    25    27    29   ar
    26    12    13   ar
    27    13    14    1
    28    13    15   ar
    29    15    16    1
    30    10     2    1
    31    29    22   ar
    32    15     9   ar
    33    20    21    1
    34    14    17    1
@<TRIPOS>MOLECULE
*****
 32 34 0 0 0
SMALL
GASTEIGER

@<TRIPOS>ATOM
      1 C          63.5454   89.2237   13.2359 C.3     1  UNL1        0.0044
      2 C          63.9914   87.9499   13.8907 C.3     1  UNL1        0.0187
      3 C          64.5737   88.9508   14.8443 C.3     1  UNL1        0.0044
      4 C          64.6395   87.0238   14.8767 C.3     1  UNL1        0.0044
      5 C          64.5505   85.5392   14.6817 C.3     1  UNL1        0.0044
      6 C          63.8133   84.9807   13.5008 C.3     1  UNL1        0.0195
      7 C          64.2592   83.7069   14.1556 C.3     1  UNL1        0.0044
      8 C          63.2309   83.9798   12.5472 C.3     1  UNL1        0.0044
      9 C          63.1651   85.9068   12.5148 C.ar    1  UNL1       -0.0132
     10 C          63.2542   87.3914   12.7098 C.ar    1  UNL1       -0.0256
     11 C          62.6060   88.3176   11.7238 C.ar    1  UNL1        0.0030
     12 C          61.8688   87.7591   10.5428 C.ar    1  UNL1        0.0878
     13 C          61.7798   86.2745   10.3479 C.ar    1  UNL1        0.1481
     14 O          61.0425   85.7160    9.1668 O.3     1  UNL1       -0.5045
     15 C          62.4279   85.3484   11.3338 C.ar    1  UNL1        0.0871
     16 CL         62.3389   83.8638   11.1388 Cl      1  UNL1       -0.0794
     17 H          60.6377   86.2946    8.5510 H       1  UNL1        0.2922
     18 C          61.2206   88.6853    9.5568 C.2     1  UNL1        0.2525
     19 O          61.2404   90.1662    9.7939 O.2     1  UNL1       -0.2697
     20 N          60.5526   88.1303    8.3338 N.am    1  UNL1       -0.2802
     21 H          60.5396   87.1583    8.1782 H       1  UNL1        0.1552
     22 C          59.9045   89.0564    7.3478 C.ar    1  UNL1        0.0550
     23 C          60.7510   89.9395    6.4797 C.ar    1  UNL1        0.0445
     24 C          60.1028   90.8655    5.4937 C.ar    1  UNL1        0.1446
     25 F          60.9493   91.7486    4.6256 F       1  UNL1       -0.2040
     26 C          58.6080   90.9085    5.3757 C.ar    1  UNL1        0.0689
     27 C          57.7615   90.0255    6.2438 C.ar    1  UNL1        0.1446
     28 F          56.2668   90.0684    6.1259 F       1  UNL1       -0.2040
     29 C          58.4097   89.0994    7.2298 C.ar    1  UNL1        0.0445
     30 C          57.9599   91.8346    4.3897 C.2     1  UNL1        0.0772
     31 O          58.7644   92.4141    3.2641 O.co2   1  UNL1       -0.5444
     32 O          56.5072   92.1812    4.5293 O.co2   1  UNL1       -0.5444
@<TRIPOS>UNITY_ATOM_ATTR
31 1
charge -1
@<TRIPOS>BOND
     1     1     2    1
     2     2     3    1
     3     2     4    1
     4     4     5    1
     5     5     6    1
     6     6     7    1
     7     6     8    1
     8     6     9    1
     9     9    10   ar
    10    10    11   ar
    11    11    12   ar
    12    12    18    1
    13    18    19    2
    14    18    20   am
    15    20    22    1
    16    22    23   ar
    17    23    24   ar
    18    24    25    1
    19    24    26   ar
    20    26    30    1
    21    30    31   ar
    22    30    32   ar
    23    26    27   ar
    24    27    28    1
    25    27    29   ar
    26    12    13   ar
    27    13    14    1
    28    13    15   ar
    29    15    16    1
    30    10     2    1
    31    29    22   ar
    32    15     9   ar
    33    20    21    1
    34    14    17    1
