@<TRIPOS>MOLECULE
*****
 59 63 0 0 0
SMALL
GASTEIGER

@<TRIPOS>ATOM
      1 C          62.1997   84.6372    9.0483 C.3     1  UNL1        0.2066
      2 O          61.5918   85.9200    8.5635 O.3     1  UNL1       -0.4483
      3 C          61.2777   87.3842    8.6499 C.2     1  UNL1        0.3235
      4 O          60.4777   87.6280    7.4047 O.2     1  UNL1       -0.2496
      5 C          61.3197   88.7398    9.2904 C.3     1  UNL1        0.1563
      6 C          60.5384   89.5870    8.3304 C.3     1  UNL1        0.0196
      7 C          61.7094   89.7185   10.3583 C.2     1  UNL1        0.1629
      8 O          61.1015   91.0012    9.8734 O.2     1  UNL1       -0.2954
      9 C          62.3696   90.1263   11.6420 C.3     1  UNL1        0.0877
     10 C          62.0555   91.5905   11.7283 C.3     1  UNL1        0.0104
     11 C          63.1697   89.8825   12.8872 C.3     1  UNL1        0.1493
     12 C          63.9510   89.0354   13.8473 C.3     1  UNL1        0.1186
     13 C          63.8716   90.4593   14.3121 C.3     1  UNL1        0.0322
     14 C          64.5590   87.7526   14.3322 C.3     1  UNL1        0.0370
     15 C          64.8731   86.2885   14.2458 C.3     1  UNL1        0.0601
     16 C          65.6731   86.0447   15.4910 C.3     1  UNL1        0.0078
     17 C          64.8311   84.9328   13.6052 C.2     1  UNL1        0.1516
     18 O          65.6124   84.0856   14.5653 O.2     1  UNL1       -0.2960
     19 C          64.4414   83.9541   12.5374 C.3     1  UNL1        0.0794
     20 C          65.0493   82.6714   13.0222 C.3     1  UNL1        0.0096
     21 C          63.7812   83.5463   11.2537 C.3     1  UNL1        0.1254
     22 N          64.1611   82.0955   11.2839 N.am    1  UNL1       -0.2437
     23 C          63.5959   81.4427   10.0573 C.2     1  UNL1        0.4049
     24 O          63.7355   79.9965    9.6845 O.2     1  UNL1       -0.2262
     25 O          62.8667   82.4900    9.2691 O.3     1  UNL1       -0.4365
     26 C          62.9811   83.7901   10.0085 C.3     1  UNL1        0.1908
     27 C          62.3003   83.4458    8.7169 C.3     1  UNL1        0.0493
     28 C          61.7208   84.1043    6.5511 C.3     1  UNL1        0.0040
     29 C          61.8101   83.6586    7.9805 C.3     1  UNL1        0.0474
     30 O          64.6744   89.2287   15.1470 O.3     1  UNL1       -0.3535
     31 C          63.8999   89.3444   16.4264 C.3     1  UNL1        0.1740
     32 O          63.2116   91.2382   13.5277 O.3     1  UNL1       -0.3283
     33 C          64.5011   92.0025   13.5819 C.3     1  UNL1        0.2643
     34 O          65.2143   92.1785   14.8897 O.3     1  UNL1       -0.3311
     35 C          66.5039   92.9428   14.9439 C.3     1  UNL1        0.1194
     36 C          67.2171   93.1188   16.2517 C.3     1  UNL1        0.0322
     37 C          67.0802   93.5312   13.6903 C.3     1  UNL1        0.0482
     38 C          66.3670   93.3552   12.3824 C.3     1  UNL1        0.0921
     39 C          65.0775   92.5909   12.3283 C.3     1  UNL1        0.1815
     40 O          64.3643   92.4149   11.0204 O.3     1  UNL1       -0.3783
     41 H          64.8673   92.8532   10.3163 H       1  UNL1        0.2106
     42 N          66.9434   93.9436   11.1287 N.3     1  UNL1       -0.2692
     43 C          67.7194   93.0773   10.1816 C.3     1  UNL1        0.0897
     44 C          66.7436   95.3983   10.8224 C.3     1  UNL1        0.0897
     45 C          64.9651   81.4168   12.3529 C.3     1  UNL1        0.0969
     46 C          64.2707   80.6825   13.4613 C.3     1  UNL1        0.0236
     47 C          62.9376   80.0401   13.2157 C.3     1  UNL1        0.0263
     48 C          61.6803   80.7296   13.6556 C.3     1  UNL1        0.1077
     49 N          61.7042   82.1919   13.9889 N.ar    1  UNL1       -0.3079
     50 C          61.4290   83.3178   13.0367 C.ar    1  UNL1        0.1785
     51 N          61.5623   84.6069   13.7922 N.ar    1  UNL1       -0.2238
     52 C          61.9199   84.2775   15.2113 C.ar    1  UNL1        0.1017
     53 C          62.0076   82.7851   15.3328 C.ar    1  UNL1        0.0965
     54 C          62.1494   85.2671   16.3150 C.ar    1  UNL1        0.0383
     55 C          63.3051   85.0881   17.2543 C.ar    1  UNL1        0.0047
     56 C          63.5347   86.0777   18.3580 C.ar    1  UNL1        0.0207
     57 C          62.6085   87.2461   18.5224 C.ar    1  UNL1        0.0989
     58 N          61.4528   87.4251   17.5831 N.ar    1  UNL1       -0.2423
     59 C          61.2232   86.4355   16.4794 C.ar    1  UNL1        0.1004
@<TRIPOS>BOND
     1    28    29    1
     2     1    29    1
     3     1     2    1
     4     2     3    1
     5     3     4    2
     6     3     5    1
     7     5     6    1
     8     5     7    1
     9     7     8    2
    10     7     9    1
    11     9    10    1
    12     9    11    1
    13    11    32    1
    14    33    32    1
    15    33    34    1
    16    34    35    1
    17    35    36    1
    18    35    37    1
    19    37    38    1
    20    38    42    1
    21    42    43    1
    22    42    44    1
    23    38    39    1
    24    39    40    1
    25    11    12    1
    26    12    13    1
    27    12    30    1
    28    30    31    1
    29    12    14    1
    30    14    15    1
    31    15    16    1
    32    15    17    1
    33    17    18    2
    34    17    19    1
    35    19    20    1
    36    19    21    1
    37    21    22    1
    38    22    45    1
    39    45    46    1
    40    46    47    1
    41    47    48    1
    42    48    49    1
    43    49    50   ar
    44    50    51   ar
    45    51    52   ar
    46    52    54    1
    47    54    55   ar
    48    55    56   ar
    49    56    57   ar
    50    57    58   ar
    51    58    59   ar
    52    52    53   ar
    53    22    23   am
    54    23    24    2
    55    23    25    1
    56    25    26    1
    57    26    27    1
    58    26     1    1
    59    39    33    1
    60    26    21    1
    61    53    49   ar
    62    59    54   ar
    63    40    41    1
@<TRIPOS>MOLECULE
*****
 59 63 0 0 0
SMALL
GASTEIGER

@<TRIPOS>ATOM
      1 C          62.2607   84.8209    9.0902 C.3     1  UNL1        0.2066
      2 O          61.7009   86.1334    8.6277 O.3     1  UNL1       -0.4483
      3 C          61.4323   87.6046    8.7445 C.2     1  UNL1        0.3235
      4 O          60.6583   87.9028    7.4947 O.2     1  UNL1       -0.2496
      5 C          61.5083   88.9429    9.4174 C.3     1  UNL1        0.1563
      6 C          60.7680   89.8369    8.4672 C.3     1  UNL1        0.0196
      7 C          61.9136   89.8836   10.5133 C.2     1  UNL1        0.1629
      8 O          61.3538   91.1960   10.0507 O.2     1  UNL1       -0.2954
      9 C          62.5682   90.2400   11.8150 C.3     1  UNL1        0.0877
     10 C          62.2996   91.7112   11.9318 C.3     1  UNL1        0.0104
     11 C          63.3422   89.9418   13.0648 C.3     1  UNL1        0.1493
     12 C          64.0825   89.0479   14.0151 C.3     1  UNL1        0.1186
     13 C          64.0418   90.4625   14.5123 C.3     1  UNL1        0.0322
     14 C          64.6423   87.7354   14.4776 C.3     1  UNL1        0.0370
     15 C          64.9109   86.2644   14.3609 C.3     1  UNL1        0.0601
     16 C          65.6849   85.9661   15.6107 C.3     1  UNL1        0.0078
     17 C          64.8349   84.9259   13.6879 C.2     1  UNL1        0.1516
     18 O          65.5752   84.0320   14.6381 O.2     1  UNL1       -0.2960
     19 C          64.4296   83.9853   12.5921 C.3     1  UNL1        0.0794
     20 C          64.9894   82.6728   13.0546 C.3     1  UNL1        0.0096
     21 C          63.7750   83.6288   11.2903 C.3     1  UNL1        0.1254
     22 N          64.1082   82.1663   11.2913 N.am    1  UNL1       -0.2437
     23 C          63.5400   81.5606   10.0421 C.2     1  UNL1        0.4049
     24 O          63.6388   80.1197    9.6371 O.2     1  UNL1       -0.2262
     25 O          62.8557   82.6488    9.2692 O.3     1  UNL1       -0.4365
     26 C          63.0010   83.9271   10.0405 C.3     1  UNL1        0.1908
     27 C          62.3280   83.6349    8.7321 C.3     1  UNL1        0.0493
     28 C          61.8480   84.3479    6.5692 C.3     1  UNL1        0.0040
     29 C          61.8553   83.8803    7.9944 C.3     1  UNL1        0.0474
     30 O          64.7930   89.1877   15.3287 O.3     1  UNL1       -0.3535
     31 C          64.0078   89.2218   16.6062 C.3     1  UNL1        0.1740
     32 O          63.4182   91.2802   13.7378 O.3     1  UNL1       -0.3283
     33 C          64.6232   92.1514   13.5409 C.3     1  UNL1        0.2643
     34 O          64.8419   92.8437   12.2284 O.3     1  UNL1       -0.3311
     35 C          66.0470   93.7149   12.0315 C.3     1  UNL1        0.1194
     36 C          66.2657   94.4073   10.7189 C.3     1  UNL1        0.0322
     37 C          67.0336   93.8937   13.1472 C.3     1  UNL1        0.0482
     38 C          66.8150   93.2013   14.4598 C.3     1  UNL1        0.0921
     39 C          65.6098   92.3302   14.6566 C.3     1  UNL1        0.1815
     40 O          65.3912   91.6378   15.9692 O.3     1  UNL1       -0.3783
     41 H          66.1155   91.8581   16.5756 H       1  UNL1        0.2106
     42 N          67.8015   93.3802   15.5755 N.3     1  UNL1       -0.2692
     43 C          68.4920   94.6986   15.7620 C.3     1  UNL1        0.0897
     44 C          68.0975   92.2404   16.5047 C.3     1  UNL1        0.0897
     45 C          64.8748   81.4374   12.3547 C.3     1  UNL1        0.0969
     46 C          64.1495   80.5737   13.3436 C.3     1  UNL1        0.0236
     47 C          62.7538   80.1082   13.0511 C.3     1  UNL1        0.0263
     48 C          61.5860   80.7753   13.7153 C.3     1  UNL1        0.1077
     49 N          61.6467   82.2367   14.0477 N.ar    1  UNL1       -0.3079
     50 C          61.4329   83.3690   13.0874 C.ar    1  UNL1        0.1785
     51 N          61.5859   84.6546   13.8451 N.ar    1  UNL1       -0.2238
     52 C          61.8943   84.3167   15.2737 C.ar    1  UNL1        0.1017
     53 C          61.9319   82.8224   15.3989 C.ar    1  UNL1        0.0965
     54 C          62.1247   85.3004   16.3823 C.ar    1  UNL1        0.0383
     55 C          63.2405   85.0805   17.3603 C.ar    1  UNL1        0.0047
     56 C          63.4709   86.0643   18.4691 C.ar    1  UNL1        0.0207
     57 C          62.5854   87.2680   18.5997 C.ar    1  UNL1        0.0989
     58 N          61.4696   87.4879   17.6217 N.ar    1  UNL1       -0.2423
     59 C          61.2392   86.5042   16.5130 C.ar    1  UNL1        0.1004
@<TRIPOS>BOND
     1    28    29    1
     2     1    29    1
     3     1     2    1
     4     2     3    1
     5     3     4    2
     6     3     5    1
     7     5     6    1
     8     5     7    1
     9     7     8    2
    10     7     9    1
    11     9    10    1
    12     9    11    1
    13    11    32    1
    14    33    32    1
    15    33    34    1
    16    34    35    1
    17    35    36    1
    18    35    37    1
    19    37    38    1
    20    38    42    1
    21    42    43    1
    22    42    44    1
    23    38    39    1
    24    39    40    1
    25    11    12    1
    26    12    13    1
    27    12    30    1
    28    30    31    1
    29    12    14    1
    30    14    15    1
    31    15    16    1
    32    15    17    1
    33    17    18    2
    34    17    19    1
    35    19    20    1
    36    19    21    1
    37    21    22    1
    38    22    45    1
    39    45    46    1
    40    46    47    1
    41    47    48    1
    42    48    49    1
    43    49    50   ar
    44    50    51   ar
    45    51    52   ar
    46    52    54    1
    47    54    55   ar
    48    55    56   ar
    49    56    57   ar
    50    57    58   ar
    51    58    59   ar
    52    52    53   ar
    53    22    23   am
    54    23    24    2
    55    23    25    1
    56    25    26    1
    57    26    27    1
    58    26     1    1
    59    39    33    1
    60    26    21    1
    61    53    49   ar
    62    59    54   ar
    63    40    41    1
@<TRIPOS>MOLECULE
*****
 59 63 0 0 0
SMALL
GASTEIGER

@<TRIPOS>ATOM
      1 C          61.7960   89.5845   10.9373 C.3     1  UNL1        0.2066
      2 O          61.2709   88.9189    9.6999 O.3     1  UNL1       -0.4483
      3 C          61.0958   87.7664    8.7558 C.2     1  UNL1        0.3235
      4 O          60.2315   88.3475    7.6764 O.2     1  UNL1       -0.2496
      5 C          61.3054   86.3554    8.2923 C.3     1  UNL1        0.1563
      6 C          60.5344   86.3084    7.0065 C.3     1  UNL1        0.0196
      7 C          61.8581   84.9652    8.4008 C.2     1  UNL1        0.1629
      8 O          61.3331   84.2996    7.1634 O.2     1  UNL1       -0.2954
      9 C          62.6446   83.8712    9.0602 C.3     1  UNL1        0.0877
     10 C          62.4695   82.7187    8.1161 C.3     1  UNL1        0.0104
     11 C          63.5090   83.2901   10.1396 C.3     1  UNL1        0.1493
     12 C          64.2801   83.3369   11.4254 C.3     1  UNL1        0.1186
     13 C          64.3622   81.9825   10.7861 C.3     1  UNL1        0.0322
     14 C          64.8051   84.0026   12.6629 C.3     1  UNL1        0.0370
     15 C          64.9802   85.1549   13.6069 C.3     1  UNL1        0.0601
     16 C          65.8446   84.5738   14.6863 C.3     1  UNL1        0.0078
     17 C          64.7706   86.5660   14.0705 C.2     1  UNL1        0.1516
     18 O          65.5417   86.6130   15.3563 O.2     1  UNL1       -0.2960
     19 C          64.2179   87.9562   13.9620 C.3     1  UNL1        0.0794
     20 C          64.7429   88.6218   15.1994 C.3     1  UNL1        0.0096
     21 C          63.4314   89.0502   13.3026 C.3     1  UNL1        0.1254
     22 N          63.6817   90.1211   14.3228 N.am    1  UNL1       -0.2437
     23 C          62.9720   91.3640   13.8738 C.2     1  UNL1        0.4049
     24 O          62.9543   92.6787   14.5958 O.2     1  UNL1       -0.2262
     25 O          62.2832   91.0613   12.5762 O.3     1  UNL1       -0.4365
     26 C          62.5671   89.6313   12.2232 C.3     1  UNL1        0.1908
     27 C          61.7653   90.6825   11.5143 C.3     1  UNL1        0.0493
     28 C          59.7903   91.2276   11.1025 C.3     1  UNL1        0.0040
     29 C          61.2432   90.9746   10.8288 C.3     1  UNL1        0.0474
     30 O          65.1112   82.3942   12.2441 O.3     1  UNL1       -0.3535
     31 C          64.6272   81.9432   13.5903 C.3     1  UNL1        0.1740
     32 O          63.7186   81.8790    9.6760 O.3     1  UNL1       -0.3283
     33 C          63.1695   80.7367   10.4781 C.3     1  UNL1        0.2643
     34 O          63.4334   79.3238   10.0492 O.3     1  UNL1       -0.3311
     35 C          62.8843   78.1813   10.8513 C.3     1  UNL1        0.1194
     36 C          63.1482   76.7684   10.4223 C.3     1  UNL1        0.0322
     37 C          62.0713   78.4518   12.0826 C.3     1  UNL1        0.0482
     38 C          61.8074   79.8648   12.5116 C.3     1  UNL1        0.0921
     39 C          62.3565   81.0072   11.7094 C.3     1  UNL1        0.1815
     40 O          62.0926   82.4201   12.1384 O.3     1  UNL1       -0.3783
     41 H          61.5563   82.4177   12.9467 H       1  UNL1        0.2106
     42 N          60.9944   80.1353   13.7428 N.3     1  UNL1       -0.2692
     43 C          61.2911   81.3383   14.5881 C.3     1  UNL1        0.0897
     44 C          59.8848   79.2027   14.1287 C.3     1  UNL1        0.0897
     45 C          64.4983   89.9746   15.5725 C.3     1  UNL1        0.0969
     46 C          64.3105   90.9365   16.7080 C.3     1  UNL1        0.0236
     47 C          64.9658   92.2851   16.6649 C.3     1  UNL1        0.0263
     48 C          66.3808   92.4164   16.1848 C.3     1  UNL1        0.1077
     49 N          66.6624   92.6088   14.7241 N.ar    1  UNL1       -0.3079
     50 C          67.3898   91.6467   13.8323 C.ar    1  UNL1        0.1785
     51 N          67.4429   92.2403   12.4557 N.ar    1  UNL1       -0.2238
     52 C          66.7483   93.5692   12.4968 C.ar    1  UNL1        0.1017
     53 C          66.2659   93.7969   13.8988 C.ar    1  UNL1        0.0965
     54 C          66.5679   94.5059   11.3392 C.ar    1  UNL1        0.0383
     55 C          66.1245   95.9185   11.5796 C.ar    1  UNL1        0.0047
     56 C          65.9440   96.8553   10.4220 C.ar    1  UNL1        0.0207
     57 C          66.2069   96.3793    9.0240 C.ar    1  UNL1        0.0989
     58 N          66.6504   94.9667    8.7836 N.ar    1  UNL1       -0.2423
     59 C          66.8308   94.0299    9.9413 C.ar    1  UNL1        0.1004
@<TRIPOS>BOND
     1    28    29    1
     2     1    29    1
     3     1     2    1
     4     2     3    1
     5     3     4    2
     6     3     5    1
     7     5     6    1
     8     5     7    1
     9     7     8    2
    10     7     9    1
    11     9    10    1
    12     9    11    1
    13    11    32    1
    14    33    32    1
    15    33    34    1
    16    34    35    1
    17    35    36    1
    18    35    37    1
    19    37    38    1
    20    38    42    1
    21    42    43    1
    22    42    44    1
    23    38    39    1
    24    39    40    1
    25    11    12    1
    26    12    13    1
    27    12    30    1
    28    30    31    1
    29    12    14    1
    30    14    15    1
    31    15    16    1
    32    15    17    1
    33    17    18    2
    34    17    19    1
    35    19    20    1
    36    19    21    1
    37    21    22    1
    38    22    45    1
    39    45    46    1
    40    46    47    1
    41    47    48    1
    42    48    49    1
    43    49    50   ar
    44    50    51   ar
    45    51    52   ar
    46    52    54    1
    47    54    55   ar
    48    55    56   ar
    49    56    57   ar
    50    57    58   ar
    51    58    59   ar
    52    52    53   ar
    53    22    23   am
    54    23    24    2
    55    23    25    1
    56    25    26    1
    57    26    27    1
    58    26     1    1
    59    39    33    1
    60    26    21    1
    61    53    49   ar
    62    59    54   ar
    63    40    41    1
