@<TRIPOS>MOLECULE
*****
 35 38 0 0 0
SMALL
GASTEIGER

@<TRIPOS>ATOM
      1 N          62.9733   90.8132   11.5841 N.am    1  UNL1       -0.2438
      2 C          63.5495   91.4326   10.3454 C.3     1  UNL1        0.1009
      3 C          64.7225   92.3618   10.4474 C.3     1  UNL1        0.0661
      4 C          65.3194   92.6717   11.7882 C.3     1  UNL1        0.1582
      5 O          64.7432   92.0524   13.0270 O.3     1  UNL1       -0.4375
      6 C          63.5702   91.1231   12.9249 C.2     1  UNL1        0.4051
      7 O          62.9940   90.5038   14.1636 O.2     1  UNL1       -0.2262
      8 C          66.2104   93.4985   10.9090 C.ar    1  UNL1        0.0137
      9 C          67.2722   92.8358   10.0824 C.ar    1  UNL1       -0.0010
     10 C          68.1631   93.6625    9.2032 C.ar    1  UNL1       -0.0002
     11 C          67.9922   95.1518    9.1509 C.ar    1  UNL1       -0.0000
     12 C          66.9304   95.8145    9.9776 C.ar    1  UNL1       -0.0002
     13 C          66.0394   94.9877   10.8567 C.ar    1  UNL1       -0.0010
     14 C          60.4262   90.4345   11.2395 C.3     1  UNL1        0.0265
     15 C          61.8002   89.8839   11.4820 C.3     1  UNL1        0.1011
     16 C          62.0013   88.4041   11.6224 C.ar    1  UNL1       -0.0042
     17 C          63.1122   87.8763   12.4810 C.ar    1  UNL1       -0.0027
     18 C          63.3132   86.3965   12.6214 C.ar    1  UNL1       -0.0003
     19 C          62.4033   85.4445   11.9032 C.ar    1  UNL1       -0.0000
     20 C          61.2924   85.9723   11.0446 C.ar    1  UNL1       -0.0003
     21 C          61.0914   87.4521   10.9042 C.ar    1  UNL1       -0.0027
     22 C          62.6044   83.9646   12.0436 C.ar    1  UNL1        0.0001
     23 C          62.3893   83.3012   13.3716 C.ar    1  UNL1        0.0023
     24 C          62.5904   81.8213   13.5120 C.ar    1  UNL1        0.0296
     25 C          63.0065   81.0050   12.3244 C.ar    1  UNL1        0.1401
     26 F          63.2076   79.5252   12.4647 F       1  UNL1       -0.2042
     27 C          63.2217   81.6685   10.9964 C.ar    1  UNL1        0.0296
     28 C          63.0206   83.1483   10.8560 C.ar    1  UNL1        0.0023
     29 C          66.2257   93.2688   12.8237 C.3     1  UNL1        0.0541
     30 C          66.6609   92.4489   14.0019 C.3     1  UNL1        0.0887
     31 C          68.1176   92.1664   14.2221 C.2     1  UNL1        0.2195
     32 N          68.9626   91.6600   13.0910 N.am    1  UNL1       -0.3288
     33 O          68.7290   92.3903   15.5734 O.2     1  UNL1       -0.2753
     34 H          68.5612   91.5131   12.2041 H       1  UNL1        0.1449
     35 H          69.9186   91.4745   13.2355 H       1  UNL1        0.1449
@<TRIPOS>BOND
     1    15    14    1
     2    15    16    1
     3    16    17   ar
     4    17    18   ar
     5    18    19   ar
     6    19    22    1
     7    22    23   ar
     8    23    24   ar
     9    24    25   ar
    10    25    26    1
    11    25    27   ar
    12    27    28   ar
    13    19    20   ar
    14    20    21   ar
    15    15     1    1
    16     1     2    1
    17     2     3    1
    18     3     4    1
    19     4    29    1
    20    29    30    1
    21    30    31    1
    22    31    32   am
    23    31    33    2
    24     4     8    1
    25     8     9   ar
    26     9    10   ar
    27    10    11   ar
    28    11    12   ar
    29    12    13   ar
    30     4     5    1
    31     5     6    1
    32     6     7    2
    33    21    16   ar
    34     6     1   am
    35    28    22   ar
    36    13     8   ar
    37    32    34    1
    38    32    35    1
@<TRIPOS>MOLECULE
*****
 35 38 0 0 0
SMALL
GASTEIGER

@<TRIPOS>ATOM
      1 N          63.3057   90.3321   12.0212 N.am    1  UNL1       -0.2438
      2 C          64.0003   90.2144   13.3454 C.3     1  UNL1        0.1009
      3 C          65.1953   91.0705   13.6442 C.3     1  UNL1        0.0661
      4 C          65.6955   92.0443   12.6188 C.3     1  UNL1        0.1582
      5 O          65.0008   92.1620   11.2945 O.3     1  UNL1       -0.4375
      6 C          63.8059   91.3059   10.9957 C.2     1  UNL1        0.4051
      7 O          63.1112   91.4236    9.6716 O.2     1  UNL1       -0.2262
      8 C          66.6830   92.2951   13.7197 C.ar    1  UNL1        0.0137
      9 C          66.2154   92.8384   15.0373 C.ar    1  UNL1       -0.0010
     10 C          67.2030   93.0892   16.1382 C.ar    1  UNL1       -0.0002
     11 C          68.6581   92.7966   15.9214 C.ar    1  UNL1       -0.0000
     12 C          69.1257   92.2532   14.6038 C.ar    1  UNL1       -0.0002
     13 C          68.1381   92.0025   13.5029 C.ar    1  UNL1       -0.0010
     14 C          60.7893   90.1145   11.4127 C.3     1  UNL1        0.0265
     15 C          62.1107   89.4760   11.7225 C.3     1  UNL1        0.1011
     16 C          62.2374   87.9813   11.7335 C.ar    1  UNL1       -0.0042
     17 C          61.4332   87.1535   10.7754 C.ar    1  UNL1       -0.0027
     18 C          61.5599   85.6589   10.7865 C.ar    1  UNL1       -0.0003
     19 C          62.4906   84.9922   11.7556 C.ar    1  UNL1       -0.0000
     20 C          63.2948   85.8201   12.7137 C.ar    1  UNL1       -0.0003
     21 C          63.1681   87.3146   12.7026 C.ar    1  UNL1       -0.0027
     22 C          62.6173   83.4975   11.7666 C.ar    1  UNL1        0.0001
     23 C          63.1145   82.7780   10.5480 C.ar    1  UNL1        0.0023
     24 C          63.2411   81.2833   10.5590 C.ar    1  UNL1        0.0296
     25 C          62.8705   80.5083   11.7887 C.ar    1  UNL1        0.1401
     26 F          62.9971   79.0137   11.7997 F       1  UNL1       -0.2042
     27 C          62.3732   81.2279   13.0073 C.ar    1  UNL1        0.0296
     28 C          62.2466   82.7225   12.9962 C.ar    1  UNL1        0.0023
     29 C          66.5387   93.1052   11.9757 C.3     1  UNL1        0.0541
     30 C          66.6235   93.1920   10.4806 C.3     1  UNL1        0.0887
     31 C          67.8597   93.7383    9.8299 C.2     1  UNL1        0.2195
     32 N          69.1219   92.9280    9.8188 N.am    1  UNL1       -0.3288
     33 O          67.8336   95.0949    9.1905 O.2     1  UNL1       -0.2753
     34 H          69.1390   92.0376   10.2385 H       1  UNL1        0.1449
     35 H          69.9333   93.2865    9.3917 H       1  UNL1        0.1449
@<TRIPOS>BOND
     1    15    14    1
     2    15    16    1
     3    16    17   ar
     4    17    18   ar
     5    18    19   ar
     6    19    22    1
     7    22    23   ar
     8    23    24   ar
     9    24    25   ar
    10    25    26    1
    11    25    27   ar
    12    27    28   ar
    13    19    20   ar
    14    20    21   ar
    15    15     1    1
    16     1     2    1
    17     2     3    1
    18     3     4    1
    19     4    29    1
    20    29    30    1
    21    30    31    1
    22    31    32   am
    23    31    33    2
    24     4     8    1
    25     8     9   ar
    26     9    10   ar
    27    10    11   ar
    28    11    12   ar
    29    12    13   ar
    30     4     5    1
    31     5     6    1
    32     6     7    2
    33    21    16   ar
    34     6     1   am
    35    28    22   ar
    36    13     8   ar
    37    32    34    1
    38    32    35    1
@<TRIPOS>MOLECULE
*****
 35 38 0 0 0
SMALL
GASTEIGER

@<TRIPOS>ATOM
      1 N          64.4697   90.4949   14.5743 N.am    1  UNL1       -0.2438
      2 C          64.7446   90.5373   13.1004 C.3     1  UNL1        0.1009
      3 C          65.4991   91.6921   12.5111 C.3     1  UNL1        0.0661
      4 C          65.9788   92.8043   13.3958 C.3     1  UNL1        0.1582
      5 O          65.7040   92.7619   14.8698 O.3     1  UNL1       -0.4375
      6 C          64.9495   91.6072   15.4591 C.2     1  UNL1        0.4051
      7 O          64.6746   91.5647   16.9331 O.2     1  UNL1       -0.2262
      8 C          66.4808   93.2919   12.0690 C.ar    1  UNL1        0.0137
      9 C          66.2214   94.7065   11.6428 C.ar    1  UNL1       -0.0010
     10 C          66.7234   95.1941   10.3160 C.ar    1  UNL1       -0.0002
     11 C          67.4848   94.2670    9.4155 C.ar    1  UNL1       -0.0000
     12 C          67.7442   92.8524    9.8418 C.ar    1  UNL1       -0.0002
     13 C          67.2422   92.3649   11.1686 C.ar    1  UNL1       -0.0010
     14 C          63.0330   89.4891   16.4911 C.3     1  UNL1        0.0265
     15 C          63.7152   89.3401   15.1636 C.3     1  UNL1        0.1011
     16 C          63.6429   88.0363   14.4253 C.ar    1  UNL1       -0.0042
     17 C          64.1060   86.7727   15.0876 C.ar    1  UNL1       -0.0027
     18 C          64.0337   85.4690   14.3493 C.ar    1  UNL1       -0.0003
     19 C          63.4983   85.4290   12.9487 C.ar    1  UNL1       -0.0000
     20 C          63.0352   86.6926   12.2864 C.ar    1  UNL1       -0.0003
     21 C          63.1075   87.9963   13.0247 C.ar    1  UNL1       -0.0027
     22 C          63.4260   84.1252   12.2104 C.ar    1  UNL1        0.0001
     23 C          62.7121   82.9560   12.8212 C.ar    1  UNL1        0.0023
     24 C          62.6398   81.6522   12.0829 C.ar    1  UNL1        0.0296
     25 C          63.2814   81.5178   10.7337 C.ar    1  UNL1        0.1401
     26 F          63.2092   80.2141    9.9954 F       1  UNL1       -0.2042
     27 C          63.9953   82.6871   10.1229 C.ar    1  UNL1        0.0296
     28 C          64.0676   83.9908   10.8612 C.ar    1  UNL1        0.0023
     29 C          66.6329   94.0860   13.8197 C.3     1  UNL1        0.0541
     30 C          67.6311   94.0840   14.9394 C.3     1  UNL1        0.0887
     31 C          68.4797   92.8719   15.1855 C.2     1  UNL1        0.2195
     32 N          69.3880   92.3607   14.1068 N.am    1  UNL1       -0.3288
     33 O          68.4199   92.1710   16.5103 O.2     1  UNL1       -0.2753
     34 H          69.4272   92.8208   13.2373 H       1  UNL1        0.1449
     35 H          69.9450   91.5651   14.2683 H       1  UNL1        0.1449
@<TRIPOS>BOND
     1    15    14    1
     2    15    16    1
     3    16    17   ar
     4    17    18   ar
     5    18    19   ar
     6    19    22    1
     7    22    23   ar
     8    23    24   ar
     9    24    25   ar
    10    25    26    1
    11    25    27   ar
    12    27    28   ar
    13    19    20   ar
    14    20    21   ar
    15    15     1    1
    16     1     2    1
    17     2     3    1
    18     3     4    1
    19     4    29    1
    20    29    30    1
    21    30    31    1
    22    31    32   am
    23    31    33    2
    24     4     8    1
    25     8     9   ar
    26     9    10   ar
    27    10    11   ar
    28    11    12   ar
    29    12    13   ar
    30     4     5    1
    31     5     6    1
    32     6     7    2
    33    21    16   ar
    34     6     1   am
    35    28    22   ar
    36    13     8   ar
    37    32    34    1
    38    32    35    1
@<TRIPOS>MOLECULE
*****
 35 38 0 0 0
SMALL
GASTEIGER

@<TRIPOS>ATOM
      1 N          63.6783   88.2006   13.7444 N.am    1  UNL1       -0.2438
      2 C          64.1788   86.9740   14.4477 C.3     1  UNL1        0.1009
      3 C          63.8618   85.6138   13.9005 C.3     1  UNL1        0.0661
      4 C          63.0444   85.4803   12.6499 C.3     1  UNL1        0.1582
      5 O          62.5439   86.7070   11.9465 O.3     1  UNL1       -0.4375
      6 C          62.8608   88.0672   12.4937 C.2     1  UNL1        0.4051
      7 O          62.3603   89.2939   11.7904 O.2     1  UNL1       -0.2262
      8 C          63.2907   84.0326   12.9558 C.ar    1  UNL1        0.0137
      9 C          62.6860   83.4113   14.1799 C.ar    1  UNL1       -0.0010
     10 C          62.9324   81.9636   14.4858 C.ar    1  UNL1       -0.0002
     11 C          63.7834   81.1373   13.5677 C.ar    1  UNL1       -0.0000
     12 C          64.3881   81.7586   12.3436 C.ar    1  UNL1       -0.0002
     13 C          64.1418   83.2063   12.0377 C.ar    1  UNL1       -0.0010
     14 C          63.6996   89.8792   15.7273 C.3     1  UNL1        0.0265
     15 C          63.9952   89.5608   14.2916 C.3     1  UNL1        0.1011
     16 C          64.6078   90.6027   13.4031 C.ar    1  UNL1       -0.0042
     17 C          65.8832   91.2793   13.8096 C.ar    1  UNL1       -0.0027
     18 C          66.4958   92.3211   12.9211 C.ar    1  UNL1       -0.0003
     19 C          65.8328   92.6862   11.6260 C.ar    1  UNL1       -0.0000
     20 C          64.5574   92.0096   11.2195 C.ar    1  UNL1       -0.0003
     21 C          63.9449   90.9678   12.1080 C.ar    1  UNL1       -0.0027
     22 C          66.4454   93.7280   10.7375 C.ar    1  UNL1        0.0001
     23 C          67.2322   93.3147    9.5292 C.ar    1  UNL1        0.0023
     24 C          67.8447   94.3566    8.6406 C.ar    1  UNL1        0.0296
     25 C          67.6705   95.8117    8.9605 C.ar    1  UNL1        0.1401
     26 F          68.2830   96.8535    8.0721 F       1  UNL1       -0.2042
     27 C          66.8837   96.2249   10.1690 C.ar    1  UNL1        0.0296
     28 C          66.2712   95.1831   11.0574 C.ar    1  UNL1        0.0023
     29 C          62.3125   84.8440   11.5055 C.3     1  UNL1        0.0541
     30 C          61.3630   85.6578   10.6773 C.3     1  UNL1        0.0887
     31 C          61.8309   86.2825    9.3963 C.2     1  UNL1        0.2195
     32 N          61.4806   87.7074    9.0851 N.am    1  UNL1       -0.3288
     33 O          62.6490   85.4822    8.4267 O.2     1  UNL1       -0.2753
     34 H          60.9436   88.2326    9.7215 H       1  UNL1        0.1449
     35 H          61.7877   88.1174    8.2443 H       1  UNL1        0.1449
@<TRIPOS>BOND
     1    15    14    1
     2    15    16    1
     3    16    17   ar
     4    17    18   ar
     5    18    19   ar
     6    19    22    1
     7    22    23   ar
     8    23    24   ar
     9    24    25   ar
    10    25    26    1
    11    25    27   ar
    12    27    28   ar
    13    19    20   ar
    14    20    21   ar
    15    15     1    1
    16     1     2    1
    17     2     3    1
    18     3     4    1
    19     4    29    1
    20    29    30    1
    21    30    31    1
    22    31    32   am
    23    31    33    2
    24     4     8    1
    25     8     9   ar
    26     9    10   ar
    27    10    11   ar
    28    11    12   ar
    29    12    13   ar
    30     4     5    1
    31     5     6    1
    32     6     7    2
    33    21    16   ar
    34     6     1   am
    35    28    22   ar
    36    13     8   ar
    37    32    34    1
    38    32    35    1
@<TRIPOS>MOLECULE
*****
 35 38 0 0 0
SMALL
GASTEIGER

@<TRIPOS>ATOM
      1 N          62.2053   88.0791   11.3773 N.am    1  UNL1       -0.2438
      2 C          62.5691   86.9643   12.3125 C.3     1  UNL1        0.1009
      3 C          62.7542   85.5725   11.7845 C.3     1  UNL1        0.0661
      4 C          62.5753   85.2956   10.3212 C.3     1  UNL1        0.1582
      5 O          62.2114   86.4105    9.3859 O.3     1  UNL1       -0.4375
      6 C          62.0264   87.8022    9.9139 C.2     1  UNL1        0.4051
      7 O          61.6625   88.9170    8.9787 O.2     1  UNL1       -0.2262
      8 C          62.9184   83.9185   10.8068 C.ar    1  UNL1        0.0137
      9 C          63.8608   83.0583   10.0182 C.ar    1  UNL1       -0.0010
     10 C          64.2040   81.6811   10.5038 C.ar    1  UNL1       -0.0002
     11 C          63.6047   81.1643   11.7781 C.ar    1  UNL1       -0.0000
     12 C          62.6623   82.0245   12.5667 C.ar    1  UNL1       -0.0002
     13 C          62.3192   83.4017   12.0811 C.ar    1  UNL1       -0.0010
     14 C          60.6915   90.1536   11.7709 C.3     1  UNL1        0.0265
     15 C          62.0203   89.4708   11.9054 C.3     1  UNL1        0.1011
     16 C          63.1641   90.1798   12.5679 C.ar    1  UNL1       -0.0042
     17 C          63.5894   89.7873   13.9518 C.ar    1  UNL1       -0.0027
     18 C          64.7332   90.4963   14.6143 C.ar    1  UNL1       -0.0003
     19 C          65.4518   91.5978   13.8930 C.ar    1  UNL1       -0.0000
     20 C          65.0266   91.9903   12.5091 C.ar    1  UNL1       -0.0003
     21 C          63.8827   91.2813   11.8466 C.ar    1  UNL1       -0.0027
     22 C          66.5957   92.3068   14.5556 C.ar    1  UNL1        0.0001
     23 C          66.7384   93.7935   14.4163 C.ar    1  UNL1        0.0023
     24 C          67.8822   94.5025   15.0789 C.ar    1  UNL1        0.0296
     25 C          68.8834   93.7247   15.8807 C.ar    1  UNL1        0.1401
     26 F          70.0272   94.4336   16.5433 F       1  UNL1       -0.2042
     27 C          68.7406   92.2380   16.0199 C.ar    1  UNL1        0.0296
     28 C          67.5968   91.5291   15.3574 C.ar    1  UNL1        0.0023
     29 C          62.5156   84.5404    9.0265 C.3     1  UNL1        0.0541
     30 C          62.3075   85.2778    7.7370 C.3     1  UNL1        0.0887
     31 C          61.0428   85.0794    6.9552 C.2     1  UNL1        0.2195
     32 N          59.7779   85.7582    7.3901 N.am    1  UNL1       -0.3288
     33 O          61.0431   84.2021    5.7385 O.2     1  UNL1       -0.2753
     34 H          59.7777   86.3340    8.1887 H       1  UNL1        0.1449
     35 H          58.9478   85.6279    6.8770 H       1  UNL1        0.1449
@<TRIPOS>BOND
     1    15    14    1
     2    15    16    1
     3    16    17   ar
     4    17    18   ar
     5    18    19   ar
     6    19    22    1
     7    22    23   ar
     8    23    24   ar
     9    24    25   ar
    10    25    26    1
    11    25    27   ar
    12    27    28   ar
    13    19    20   ar
    14    20    21   ar
    15    15     1    1
    16     1     2    1
    17     2     3    1
    18     3     4    1
    19     4    29    1
    20    29    30    1
    21    30    31    1
    22    31    32   am
    23    31    33    2
    24     4     8    1
    25     8     9   ar
    26     9    10   ar
    27    10    11   ar
    28    11    12   ar
    29    12    13   ar
    30     4     5    1
    31     5     6    1
    32     6     7    2
    33    21    16   ar
    34     6     1   am
    35    28    22   ar
    36    13     8   ar
    37    32    34    1
    38    32    35    1
@<TRIPOS>MOLECULE
*****
 35 38 0 0 0
SMALL
GASTEIGER

@<TRIPOS>ATOM
      1 N          61.9862   88.4337   11.1312 N.am    1  UNL1       -0.2438
      2 C          61.4233   88.3499    9.7433 C.3     1  UNL1        0.1009
      3 C          61.6183   87.1056    8.9287 C.3     1  UNL1        0.0661
      4 C          62.3762   85.9450    9.5019 C.3     1  UNL1        0.1582
      5 O          62.9391   86.0287   10.8898 O.3     1  UNL1       -0.4375
      6 C          62.7442   87.2730   11.7044 C.2     1  UNL1        0.4051
      7 O          63.3071   87.3568   13.0922 O.2     1  UNL1       -0.2262
      8 C          62.0353   85.3914    8.1501 C.ar    1  UNL1        0.0137
      9 C          60.6175   85.4250    7.6616 C.ar    1  UNL1       -0.0010
     10 C          60.2767   84.8714    6.3098 C.ar    1  UNL1       -0.0002
     11 C          61.3537   84.2843    5.4465 C.ar    1  UNL1       -0.0000
     12 C          62.7715   84.2507    5.9350 C.ar    1  UNL1       -0.0002
     13 C          63.1124   84.8043    7.2868 C.ar    1  UNL1       -0.0010
     14 C          60.4202   90.2665   12.0997 C.3     1  UNL1        0.0265
     15 C          61.7913   89.6780   11.9458 C.3     1  UNL1        0.1011
     16 C          62.9675   90.3339   12.6064 C.ar    1  UNL1       -0.0042
     17 C          63.2246   90.1159   14.0681 C.ar    1  UNL1       -0.0027
     18 C          64.4008   90.7717   14.7286 C.ar    1  UNL1       -0.0003
     19 C          65.3199   91.6456   13.9276 C.ar    1  UNL1       -0.0000
     20 C          65.0628   91.8636   12.4660 C.ar    1  UNL1       -0.0003
     21 C          63.8866   91.2077   11.8054 C.ar    1  UNL1       -0.0027
     22 C          66.4961   92.3014   14.5883 C.ar    1  UNL1        0.0001
     23 C          67.4502   91.4822   15.4059 C.ar    1  UNL1        0.0023
     24 C          68.6264   92.1380   16.0666 C.ar    1  UNL1        0.0296
     25 C          68.8485   93.6132   15.9096 C.ar    1  UNL1        0.1401
     26 F          70.0246   94.2690   16.5702 F       1  UNL1       -0.2042
     27 C          67.8944   94.4324   15.0919 C.ar    1  UNL1        0.0296
     28 C          66.7182   93.7766   14.4313 C.ar    1  UNL1        0.0023
     29 C          63.0157   84.5921    9.6057 C.3     1  UNL1        0.0541
     30 C          63.1818   83.9419   10.9471 C.3     1  UNL1        0.0887
     31 C          64.2511   82.9103   11.1533 C.2     1  UNL1        0.2195
     32 N          64.7919   82.6554   12.5290 N.am    1  UNL1       -0.3288
     33 O          64.7793   82.1336    9.9839 O.2     1  UNL1       -0.2753
     34 H          64.4452   83.1653   13.2965 H       1  UNL1        0.1449
     35 H          65.4937   81.9784   12.6644 H       1  UNL1        0.1449
@<TRIPOS>BOND
     1    15    14    1
     2    15    16    1
     3    16    17   ar
     4    17    18   ar
     5    18    19   ar
     6    19    22    1
     7    22    23   ar
     8    23    24   ar
     9    24    25   ar
    10    25    26    1
    11    25    27   ar
    12    27    28   ar
    13    19    20   ar
    14    20    21   ar
    15    15     1    1
    16     1     2    1
    17     2     3    1
    18     3     4    1
    19     4    29    1
    20    29    30    1
    21    30    31    1
    22    31    32   am
    23    31    33    2
    24     4     8    1
    25     8     9   ar
    26     9    10   ar
    27    10    11   ar
    28    11    12   ar
    29    12    13   ar
    30     4     5    1
    31     5     6    1
    32     6     7    2
    33    21    16   ar
    34     6     1   am
    35    28    22   ar
    36    13     8   ar
    37    32    34    1
    38    32    35    1
