@<TRIPOS>MOLECULE
*****
 23 24 0 0 0
SMALL
GASTEIGER

@<TRIPOS>ATOM
      1 N          62.1285   84.7936   14.9458 N.pl3   1  UNL1       -0.3340
      2 H          61.1495   84.8930   14.9775 H       1  UNL1        0.1468
      3 C          62.7552   83.8514   13.9612 C.ar    1  UNL1        0.0476
      4 C          63.3112   82.5390   14.4283 C.ar    1  UNL1        0.0350
      5 C          63.9379   81.5968   13.4437 C.ar    1  UNL1        0.1001
      6 N          64.0086   81.9671   11.9918 N.ar    1  UNL1       -0.2437
      7 C          63.4526   83.2795   11.5247 C.ar    1  UNL1        0.0833
      8 C          63.5233   83.6499   10.0728 C.ar    1  UNL1        0.0305
      9 C          62.9673   84.9623    9.6056 C.ar    1  UNL1        0.0592
     10 CL         63.0379   85.3327    8.1537 Cl      1  UNL1       -0.0822
     11 C          62.3405   85.9045   10.5903 C.ar    1  UNL1        0.0115
     12 C          62.2698   85.5342   12.0421 C.ar    1  UNL1        0.0036
     13 C          62.8259   84.2217   12.5093 C.ar    1  UNL1        0.0309
     14 C          62.9933   85.5843   15.8822 C.3     1  UNL1        0.0691
     15 C          62.4954   85.9254   17.2554 C.3     1  UNL1        0.0212
     16 C          64.3560   86.0340   15.4453 C.3     1  UNL1        0.0209
     17 C          64.5046   87.2639   14.5996 C.3     1  UNL1        0.0190
     18 C          64.0336   88.5910   15.1165 C.3     1  UNL1        0.0721
     19 N          64.1142   89.8076   14.2429 N.3     1  UNL1       -0.2727
     20 C          65.5098   91.7970   13.3237 C.3     1  UNL1        0.0188
     21 C          65.2792   90.7442   14.3671 C.3     1  UNL1        0.0721
     22 C          63.0298   90.0877   13.2452 C.3     1  UNL1        0.0721
     23 C          63.0100   89.3585   11.9345 C.3     1  UNL1        0.0188
@<TRIPOS>BOND
     1    20    21    1
     2    21    19    1
     3    19    22    1
     4    22    23    1
     5    19    18    1
     6    18    17    1
     7    17    16    1
     8    16    14    1
     9    14    15    1
    10    14     1    1
    11     1     3    1
    12     3     4   ar
    13     4     5   ar
    14     5     6   ar
    15     6     7   ar
    16     7     8   ar
    17     8     9   ar
    18     9    10    1
    19     9    11   ar
    20    11    12   ar
    21    12    13   ar
    22    13     3   ar
    23    13     7   ar
    24     1     2    1
@<TRIPOS>MOLECULE
*****
 23 24 0 0 0
SMALL
GASTEIGER

@<TRIPOS>ATOM
      1 N          62.8711   90.1235   14.4458 N.pl3   1  UNL1       -0.3340
      2 H          61.9174   90.3554   14.5228 H       1  UNL1        0.1468
      3 C          63.7583   90.8968   13.5159 C.ar    1  UNL1        0.0476
      4 C          63.4847   90.8922   12.0411 C.ar    1  UNL1        0.0350
      5 C          64.3719   91.6655   11.1112 C.ar    1  UNL1        0.1001
      6 N          65.5328   92.4436   11.6561 N.ar    1  UNL1       -0.2437
      7 C          65.8065   92.4482   13.1309 C.ar    1  UNL1        0.0833
      8 C          66.9674   93.2263   13.6758 C.ar    1  UNL1        0.0305
      9 C          67.2411   93.2310   15.1506 C.ar    1  UNL1        0.0592
     10 CL         68.4020   94.0090   15.6956 Cl      1  UNL1       -0.0822
     11 C          66.3539   92.4576   16.0805 C.ar    1  UNL1        0.0115
     12 C          65.1930   91.6795   15.5357 C.ar    1  UNL1        0.0036
     13 C          64.9192   91.6749   14.0608 C.ar    1  UNL1        0.0309
     14 C          63.4369   88.9967   15.2584 C.3     1  UNL1        0.0691
     15 C          63.1528   88.9162   16.7291 C.3     1  UNL1        0.0212
     16 C          64.2869   87.9505   14.6004 C.3     1  UNL1        0.0209
     17 C          64.3329   86.5600   15.1610 C.3     1  UNL1        0.0190
     18 C          64.6062   85.3951   14.2562 C.3     1  UNL1        0.0721
     19 N          63.4844   84.4921   13.8366 N.3     1  UNL1       -0.2727
     20 C          62.4045   85.6100   11.7548 C.3     1  UNL1        0.0188
     21 C          63.0711   84.4291   12.3961 C.3     1  UNL1        0.0721
     22 C          62.7760   83.6519   14.8576 C.3     1  UNL1        0.0721
     23 C          62.1748   82.3365   14.4599 C.3     1  UNL1        0.0188
@<TRIPOS>BOND
     1    20    21    1
     2    21    19    1
     3    19    22    1
     4    22    23    1
     5    19    18    1
     6    18    17    1
     7    17    16    1
     8    16    14    1
     9    14    15    1
    10    14     1    1
    11     1     3    1
    12     3     4   ar
    13     4     5   ar
    14     5     6   ar
    15     6     7   ar
    16     7     8   ar
    17     8     9   ar
    18     9    10    1
    19     9    11   ar
    20    11    12   ar
    21    12    13   ar
    22    13     3   ar
    23    13     7   ar
    24     1     2    1
@<TRIPOS>MOLECULE
*****
 23 24 0 0 0
SMALL
GASTEIGER

@<TRIPOS>ATOM
      1 N          61.5319   88.1305   11.7661 N.pl3   1  UNL1       -0.3340
      2 H          60.8085   88.1858   12.4316 H       1  UNL1        0.1468
      3 C          62.3086   89.3601   11.3989 C.ar    1  UNL1        0.0476
      4 C          62.0500   90.0479   10.0912 C.ar    1  UNL1        0.0350
      5 C          62.8268   91.2774    9.7240 C.ar    1  UNL1        0.1001
      6 N          63.8621   91.8192   10.6644 N.ar    1  UNL1       -0.2437
      7 C          64.1207   91.1315   11.9721 C.ar    1  UNL1        0.0833
      8 C          65.1560   91.6733   12.9126 C.ar    1  UNL1        0.0305
      9 C          65.4146   90.9855   14.2203 C.ar    1  UNL1        0.0592
     10 CL         66.4500   91.5273   15.1609 Cl      1  UNL1       -0.0822
     11 C          64.6379   89.7559   14.5875 C.ar    1  UNL1        0.0115
     12 C          63.6026   89.2141   13.6471 C.ar    1  UNL1        0.0036
     13 C          63.3439   89.9019   12.3393 C.ar    1  UNL1        0.0309
     14 C          61.8573   86.8168   11.1194 C.3     1  UNL1        0.0691
     15 C          61.2691   86.4725    9.7832 C.3     1  UNL1        0.0212
     16 C          62.7711   85.8474   11.8089 C.3     1  UNL1        0.0209
     17 C          62.6017   84.3729   11.5918 C.3     1  UNL1        0.0190
     18 C          63.4565   83.4002   12.3490 C.3     1  UNL1        0.0721
     19 N          63.5162   83.4618   13.8465 N.3     1  UNL1       -0.2727
     20 C          64.6176   85.5784   14.8748 C.3     1  UNL1        0.0188
     21 C          64.6807   84.1212   14.5242 C.3     1  UNL1        0.0721
     22 C          62.4115   82.8640   14.6664 C.3     1  UNL1        0.0721
     23 C          61.7647   81.5821   14.2323 C.3     1  UNL1        0.0188
@<TRIPOS>BOND
     1    20    21    1
     2    21    19    1
     3    19    22    1
     4    22    23    1
     5    19    18    1
     6    18    17    1
     7    17    16    1
     8    16    14    1
     9    14    15    1
    10    14     1    1
    11     1     3    1
    12     3     4   ar
    13     4     5   ar
    14     5     6   ar
    15     6     7   ar
    16     7     8   ar
    17     8     9   ar
    18     9    10    1
    19     9    11   ar
    20    11    12   ar
    21    12    13   ar
    22    13     3   ar
    23    13     7   ar
    24     1     2    1
@<TRIPOS>MOLECULE
*****
 23 24 0 0 0
SMALL
GASTEIGER

@<TRIPOS>ATOM
      1 N          61.7289   87.4702   11.4551 N.pl3   1  UNL1       -0.3340
      2 H          60.8762   87.3599   11.9346 H       1  UNL1        0.1468
      3 C          62.2892   86.3350   10.6505 C.ar    1  UNL1        0.0476
      4 C          62.4266   86.4663    9.1626 C.ar    1  UNL1        0.0350
      5 C          62.9869   85.3311    8.3581 C.ar    1  UNL1        0.1001
      6 N          63.4099   84.0646    9.0414 N.ar    1  UNL1       -0.2437
      7 C          63.2725   83.9333   10.5293 C.ar    1  UNL1        0.0833
      8 C          63.6955   82.6667   11.2127 C.ar    1  UNL1        0.0305
      9 C          63.5581   82.5354   12.7006 C.ar    1  UNL1        0.0592
     10 CL         63.9811   81.2688   13.3840 Cl      1  UNL1       -0.0822
     11 C          62.9978   83.6706   13.5051 C.ar    1  UNL1        0.0115
     12 C          62.5749   84.9372   12.8218 C.ar    1  UNL1        0.0036
     13 C          62.7122   85.0685   11.3338 C.ar    1  UNL1        0.0309
     14 C          62.4678   88.7735   11.5290 C.3     1  UNL1        0.0691
     15 C          62.2801   89.8040   10.4552 C.3     1  UNL1        0.0212
     16 C          63.3943   89.0464   12.6767 C.3     1  UNL1        0.0209
     17 C          63.8381   90.4499   12.9650 C.3     1  UNL1        0.0190
     18 C          64.8420   90.7115   14.0484 C.3     1  UNL1        0.0721
     19 N          65.8735   91.7860   13.8715 N.3     1  UNL1       -0.2727
     20 C          66.9311   92.7492   16.0404 C.3     1  UNL1        0.0188
     21 C          67.0299   91.8793   14.8223 C.3     1  UNL1        0.0721
     22 C          65.7487   92.7672   12.7438 C.3     1  UNL1        0.0721
     23 C          66.6169   92.6276   11.5286 C.3     1  UNL1        0.0188
@<TRIPOS>BOND
     1    20    21    1
     2    21    19    1
     3    19    22    1
     4    22    23    1
     5    19    18    1
     6    18    17    1
     7    17    16    1
     8    16    14    1
     9    14    15    1
    10    14     1    1
    11     1     3    1
    12     3     4   ar
    13     4     5   ar
    14     5     6   ar
    15     6     7   ar
    16     7     8   ar
    17     8     9   ar
    18     9    10    1
    19     9    11   ar
    20    11    12   ar
    21    12    13   ar
    22    13     3   ar
    23    13     7   ar
    24     1     2    1
@<TRIPOS>MOLECULE
*****
 23 24 0 0 0
SMALL
GASTEIGER

@<TRIPOS>ATOM
      1 N          61.6587   85.4874   10.5681 N.pl3   1  UNL1       -0.3340
      2 H          61.1078   85.0038   11.2252 H       1  UNL1        0.1468
      3 C          61.3127   86.8978   10.1923 C.ar    1  UNL1        0.0476
      4 C          60.3186   87.1606    9.1002 C.ar    1  UNL1        0.0350
      5 C          59.9726   88.5709    8.7245 C.ar    1  UNL1        0.1001
      6 N          60.6206   89.7185    9.4408 N.ar    1  UNL1       -0.2437
      7 C          61.6147   89.4557   10.5329 C.ar    1  UNL1        0.0833
      8 C          62.2627   90.6032   11.2494 C.ar    1  UNL1        0.0305
      9 C          63.2568   90.3404   12.3415 C.ar    1  UNL1        0.0592
     10 CL         63.9048   91.4880   13.0579 Cl      1  UNL1       -0.0822
     11 C          63.6028   88.9301   12.7172 C.ar    1  UNL1        0.0115
     12 C          62.9548   87.7826   12.0009 C.ar    1  UNL1        0.0036
     13 C          61.9607   88.0453   10.9087 C.ar    1  UNL1        0.0309
     14 C          62.8442   84.8140    9.9427 C.3     1  UNL1        0.0691
     15 C          63.1418   85.0194    8.4869 C.3     1  UNL1        0.0212
     16 C          63.7320   83.9351   10.7730 C.3     1  UNL1        0.0209
     17 C          63.2510   82.5838   11.2118 C.3     1  UNL1        0.0190
     18 C          63.7468   81.9925   12.4982 C.3     1  UNL1        0.0721
     19 N          63.4122   82.6503   13.8041 N.3     1  UNL1       -0.2727
     20 C          63.9926   85.1355   14.2909 C.3     1  UNL1        0.0188
     21 C          64.3371   83.6785   14.3846 C.3     1  UNL1        0.0721
     22 C          62.1525   82.2798   14.5294 C.3     1  UNL1        0.0721
     23 C          61.3230   81.1256   14.0502 C.3     1  UNL1        0.0188
@<TRIPOS>BOND
     1    20    21    1
     2    21    19    1
     3    19    22    1
     4    22    23    1
     5    19    18    1
     6    18    17    1
     7    17    16    1
     8    16    14    1
     9    14    15    1
    10    14     1    1
    11     1     3    1
    12     3     4   ar
    13     4     5   ar
    14     5     6   ar
    15     6     7   ar
    16     7     8   ar
    17     8     9   ar
    18     9    10    1
    19     9    11   ar
    20    11    12   ar
    21    12    13   ar
    22    13     3   ar
    23    13     7   ar
    24     1     2    1
@<TRIPOS>MOLECULE
*****
 23 24 0 0 0
SMALL
GASTEIGER

@<TRIPOS>ATOM
      1 N          64.1264   90.8696   14.1753 N.pl3   1  UNL1       -0.3340
      2 H          63.4529   91.3569   14.7027 H       1  UNL1        0.1468
      3 C          63.9098   89.4254   13.8329 C.ar    1  UNL1        0.0476
      4 C          64.4370   88.3525   14.7389 C.ar    1  UNL1        0.0350
      5 C          64.2203   86.9083   14.3965 C.ar    1  UNL1        0.1001
      6 N          63.4765   86.5369   13.1480 N.ar    1  UNL1       -0.2437
      7 C          62.9493   87.6098   12.2419 C.ar    1  UNL1        0.0833
      8 C          62.2054   87.2385   10.9934 C.ar    1  UNL1        0.0305
      9 C          61.6782   88.3113   10.0873 C.ar    1  UNL1        0.0592
     10 CL         60.9343   87.9400    8.8388 Cl      1  UNL1       -0.0822
     11 C          61.8949   89.7556   10.4298 C.ar    1  UNL1        0.0115
     12 C          62.6387   90.1269   11.6782 C.ar    1  UNL1        0.0036
     13 C          63.1659   89.0540   12.5844 C.ar    1  UNL1        0.0309
     14 C          65.3692   91.5715   13.7141 C.3     1  UNL1        0.0691
     15 C          66.6205   91.5002   14.5383 C.3     1  UNL1        0.0212
     16 C          65.3608   92.3447   12.4287 C.3     1  UNL1        0.0209
     17 C          66.1552   93.6116   12.3104 C.3     1  UNL1        0.0190
     18 C          66.1461   94.3852   11.0253 C.3     1  UNL1        0.0721
     19 N          67.0546   93.9833    9.9014 N.3     1  UNL1       -0.2727
     20 C          68.7350   92.2915    8.8698 C.3     1  UNL1        0.0188
     21 C          67.7256   92.6420    9.9227 C.3     1  UNL1        0.0721
     22 C          67.2921   94.9227    8.7564 C.3     1  UNL1        0.0721
     23 C          67.3512   96.4016    8.9995 C.3     1  UNL1        0.0188
@<TRIPOS>BOND
     1    20    21    1
     2    21    19    1
     3    19    22    1
     4    22    23    1
     5    19    18    1
     6    18    17    1
     7    17    16    1
     8    16    14    1
     9    14    15    1
    10    14     1    1
    11     1     3    1
    12     3     4   ar
    13     4     5   ar
    14     5     6   ar
    15     6     7   ar
    16     7     8   ar
    17     8     9   ar
    18     9    10    1
    19     9    11   ar
    20    11    12   ar
    21    12    13   ar
    22    13     3   ar
    23    13     7   ar
    24     1     2    1
@<TRIPOS>MOLECULE
*****
 23 24 0 0 0
SMALL
GASTEIGER

@<TRIPOS>ATOM
      1 N          60.9885   87.1784   11.2626 N.pl3   1  UNL1       -0.3340
      2 H          60.2870   86.8431   11.8664 H       1  UNL1        0.1468
      3 C          61.8150   86.2140   10.4645 C.ar    1  UNL1        0.0476
      4 C          61.9822   86.4132    8.9872 C.ar    1  UNL1        0.0350
      5 C          62.8086   85.4488    8.1891 C.ar    1  UNL1        0.1001
      6 N          63.4678   84.2852    8.8683 N.ar    1  UNL1       -0.2437
      7 C          63.3006   84.0859   10.3455 C.ar    1  UNL1        0.0833
      8 C          63.9598   82.9222   11.0248 C.ar    1  UNL1        0.0305
      9 C          63.7926   82.7230   12.5020 C.ar    1  UNL1        0.0592
     10 CL         64.4519   81.5593   13.1813 Cl      1  UNL1       -0.0822
     11 C          62.9662   83.6874   13.3001 C.ar    1  UNL1        0.0115
     12 C          62.3070   84.8510   12.6210 C.ar    1  UNL1        0.0036
     13 C          62.4742   85.0503   11.1436 C.ar    1  UNL1        0.0309
     14 C          61.2310   88.6536   11.1406 C.3     1  UNL1        0.0691
     15 C          60.0752   89.5903   10.9487 C.3     1  UNL1        0.0212
     16 C          62.6292   89.1922   11.2105 C.3     1  UNL1        0.0209
     17 C          63.3633   89.2055   12.5185 C.3     1  UNL1        0.0190
     18 C          62.9337   90.1402   13.6102 C.3     1  UNL1        0.0721
     19 N          63.9395   90.6521   14.5982 N.3     1  UNL1       -0.2727
     20 C          66.1516   91.9188   15.1006 C.3     1  UNL1        0.0188
     21 C          65.1942   91.3170   14.1150 C.3     1  UNL1        0.0721
     22 C          63.6907   90.4990   16.0695 C.3     1  UNL1        0.0721
     23 C          63.1041   89.2255   16.6025 C.3     1  UNL1        0.0188
@<TRIPOS>BOND
     1    20    21    1
     2    21    19    1
     3    19    22    1
     4    22    23    1
     5    19    18    1
     6    18    17    1
     7    17    16    1
     8    16    14    1
     9    14    15    1
    10    14     1    1
    11     1     3    1
    12     3     4   ar
    13     4     5   ar
    14     5     6   ar
    15     6     7   ar
    16     7     8   ar
    17     8     9   ar
    18     9    10    1
    19     9    11   ar
    20    11    12   ar
    21    12    13   ar
    22    13     3   ar
    23    13     7   ar
    24     1     2    1
@<TRIPOS>MOLECULE
*****
 23 24 0 0 0
SMALL
GASTEIGER

@<TRIPOS>ATOM
      1 N          64.6639   88.1810   14.5988 N.pl3   1  UNL1       -0.3340
      2 H          65.6477   88.1661   14.6326 H       1  UNL1        0.1468
      3 C          63.8699   87.2349   15.4499 C.ar    1  UNL1        0.0476
      4 C          63.2563   87.7141   16.7321 C.ar    1  UNL1        0.0350
      5 C          62.4623   86.7680   17.5831 C.ar    1  UNL1        0.1001
      6 N          62.2817   85.3427   17.1521 N.ar    1  UNL1       -0.2437
      7 C          62.8953   84.8635   15.8700 C.ar    1  UNL1        0.0833
      8 C          62.7147   83.4381   15.4388 C.ar    1  UNL1        0.0305
      9 C          63.3282   82.9589   14.1567 C.ar    1  UNL1        0.0592
     10 CL         63.1477   81.5335   13.7256 Cl      1  UNL1       -0.0822
     11 C          64.1223   83.9050   13.3056 C.ar    1  UNL1        0.0115
     12 C          64.3029   85.3303   13.7367 C.ar    1  UNL1        0.0036
     13 C          63.6893   85.8096   15.0189 C.ar    1  UNL1        0.0309
     14 C          63.9591   89.1498   13.6963 C.3     1  UNL1        0.0691
     15 C          63.2518   88.6540   12.4700 C.3     1  UNL1        0.0212
     16 C          63.9615   90.6145   14.0201 C.3     1  UNL1        0.0209
     17 C          64.9968   91.1755   14.9493 C.3     1  UNL1        0.0190
     18 C          66.3684   91.5000   14.4360 C.3     1  UNL1        0.0721
     19 N          66.8323   92.9255   14.3850 N.3     1  UNL1       -0.2727
     20 C          68.7515   92.5311   16.0913 C.3     1  UNL1        0.0188
     21 C          67.7610   93.4501   15.4396 C.3     1  UNL1        0.0721
     22 C          66.3674   93.8265   13.2795 C.3     1  UNL1        0.0721
     23 C          66.0275   93.2517   11.9364 C.3     1  UNL1        0.0188
@<TRIPOS>BOND
     1    20    21    1
     2    21    19    1
     3    19    22    1
     4    22    23    1
     5    19    18    1
     6    18    17    1
     7    17    16    1
     8    16    14    1
     9    14    15    1
    10    14     1    1
    11     1     3    1
    12     3     4   ar
    13     4     5   ar
    14     5     6   ar
    15     6     7   ar
    16     7     8   ar
    17     8     9   ar
    18     9    10    1
    19     9    11   ar
    20    11    12   ar
    21    12    13   ar
    22    13     3   ar
    23    13     7   ar
    24     1     2    1
@<TRIPOS>MOLECULE
*****
 23 24 0 0 0
SMALL
GASTEIGER

@<TRIPOS>ATOM
      1 N          63.2469   91.3124   12.5818 N.pl3   1  UNL1       -0.3340
      2 H          62.6827   91.8323   13.1986 H       1  UNL1        0.1468
      3 C          64.6069   91.8188   12.2021 C.ar    1  UNL1        0.0476
      4 C          64.9004   92.1839   10.7772 C.ar    1  UNL1        0.0350
      5 C          66.2604   92.6903   10.3976 C.ar    1  UNL1        0.1001
      6 N          67.3268   92.8315   11.4429 N.ar    1  UNL1       -0.2437
      7 C          67.0333   92.4663   12.8678 C.ar    1  UNL1        0.0833
      8 C          68.0998   92.6075   13.9132 C.ar    1  UNL1        0.0305
      9 C          67.8063   92.2424   15.3382 C.ar    1  UNL1        0.0592
     10 CL         68.8727   92.3835   16.3836 Cl      1  UNL1       -0.0822
     11 C          66.4463   91.7360   15.7178 C.ar    1  UNL1        0.0115
     12 C          65.3799   91.5948   14.6725 C.ar    1  UNL1        0.0036
     13 C          65.6734   91.9600   13.2475 C.ar    1  UNL1        0.0309
     14 C          62.7467   90.0141   12.0215 C.3     1  UNL1        0.0691
     15 C          63.3214   88.7165   12.5074 C.3     1  UNL1        0.0212
     16 C          61.6718   90.0132   10.9752 C.3     1  UNL1        0.0209
     17 C          60.2778   89.5901   11.3325 C.3     1  UNL1        0.0190
     18 C          59.8192   88.1927   11.0374 C.3     1  UNL1        0.0721
     19 N          60.4655   87.4085    9.9341 N.3     1  UNL1       -0.2727
     20 C          59.0489   86.8667    7.8247 C.3     1  UNL1        0.0188
     21 C          60.1044   87.6870    8.5052 C.3     1  UNL1        0.0721
     22 C          61.4727   86.3458   10.2598 C.3     1  UNL1        0.0721
     23 C          62.4026   85.8425    9.1959 C.3     1  UNL1        0.0188
@<TRIPOS>BOND
     1    20    21    1
     2    21    19    1
     3    19    22    1
     4    22    23    1
     5    19    18    1
     6    18    17    1
     7    17    16    1
     8    16    14    1
     9    14    15    1
    10    14     1    1
    11     1     3    1
    12     3     4   ar
    13     4     5   ar
    14     5     6   ar
    15     6     7   ar
    16     7     8   ar
    17     8     9   ar
    18     9    10    1
    19     9    11   ar
    20    11    12   ar
    21    12    13   ar
    22    13     3   ar
    23    13     7   ar
    24     1     2    1
