@<TRIPOS>MOLECULE
*****
 23 25 0 0 0
SMALL
GASTEIGER

@<TRIPOS>ATOM
      1 C          65.9104   92.8494   13.3127 C.3     1  UNL1        0.0952
      2 C          66.1090   93.2716   11.8872 C.3     1  UNL1        0.0245
      3 C          65.2793   92.6556   10.8000 C.3     1  UNL1        0.0067
      4 C          64.2508   91.6175   11.1383 C.3     1  UNL1        0.0263
      5 C          64.0522   91.1952   12.5638 C.ar    1  UNL1       -0.0216
      6 C          63.0237   90.1570   12.9022 C.ar    1  UNL1        0.0150
      7 C          62.8251   89.7348   14.3277 C.ar    1  UNL1        0.0985
      8 N          63.6549   90.3507   15.4150 N.ar    1  UNL1       -0.2426
      9 C          64.6833   91.3889   15.0766 C.ar    1  UNL1        0.0959
     10 C          64.8820   91.8112   13.6510 C.ar    1  UNL1        0.0107
     11 C          62.1939   89.5411   11.8150 C.ar    1  UNL1        0.0012
     12 C          62.5653   88.1992   11.2570 C.ar    1  UNL1        0.0007
     13 C          61.7355   87.5832   10.1698 C.ar    1  UNL1        0.0103
     14 C          60.5344   88.3092    9.6405 C.ar    1  UNL1        0.0684
     15 C          60.1629   89.6511   10.1984 C.ar    1  UNL1        0.0103
     16 C          60.9927   90.2671   11.2857 C.ar    1  UNL1        0.0007
     17 C          59.7046   87.6932    8.5533 C.1     1  UNL1        0.1004
     18 N          58.8748   87.0773    7.4660 N.1     1  UNL1       -0.1908
     19 C          68.9666   93.5925   15.7329 C.3     1  UNL1        0.0946
     20 C          68.1368   92.9765   14.6457 C.2     1  UNL1        0.2232
     21 O          68.7037   91.8717   13.8042 O.2     1  UNL1       -0.2751
     22 N          66.7402   93.4653   14.4000 N.am    1  UNL1       -0.3021
     23 H          66.3681   94.1904   14.9523 H       1  UNL1        0.1497
@<TRIPOS>BOND
     1    19    20    1
     2    20    21    2
     3    20    22   am
     4    22     1    1
     5     1     2    1
     6     2     3    1
     7     3     4    1
     8     4     5    1
     9     5     6   ar
    10     6    11    1
    11    11    12   ar
    12    12    13   ar
    13    13    14   ar
    14    14    17    1
    15    17    18    3
    16    14    15   ar
    17    15    16   ar
    18     6     7   ar
    19     7     8   ar
    20     8     9   ar
    21     9    10   ar
    22    10     1    1
    23    10     5   ar
    24    16    11   ar
    25    22    23    1
@<TRIPOS>MOLECULE
*****
 23 25 0 0 0
SMALL
GASTEIGER

@<TRIPOS>ATOM
      1 C          65.0902   91.8785   14.8596 C.3     1  UNL1        0.0952
      2 C          64.3186   90.9060   15.7015 C.3     1  UNL1        0.0245
      3 C          63.3062   90.0009   15.0645 C.3     1  UNL1        0.0067
      4 C          63.0654   90.0682   13.5855 C.3     1  UNL1        0.0263
      5 C          63.8370   91.0407   12.7436 C.ar    1  UNL1       -0.0216
      6 C          63.5962   91.1081   11.2645 C.ar    1  UNL1        0.0150
      7 C          64.3678   92.0806   10.4226 C.ar    1  UNL1        0.0985
      8 N          65.3802   92.9857   11.0596 N.ar    1  UNL1       -0.2426
      9 C          65.6210   92.9184   12.5386 C.ar    1  UNL1        0.0959
     10 C          64.8494   91.9458   13.3806 C.ar    1  UNL1        0.0107
     11 C          62.5839   90.2030   10.6275 C.ar    1  UNL1        0.0012
     12 C          61.1766   90.6794   10.4209 C.ar    1  UNL1        0.0007
     13 C          60.1643   89.7742    9.7838 C.ar    1  UNL1        0.0103
     14 C          60.5591   88.3927    9.3533 C.ar    1  UNL1        0.0684
     15 C          61.9664   87.9162    9.5599 C.ar    1  UNL1        0.0103
     16 C          62.9788   88.8213   10.1970 C.ar    1  UNL1        0.0007
     17 C          59.5467   87.4875    8.7163 C.1     1  UNL1        0.1004
     18 N          58.5344   86.5824    8.0792 N.1     1  UNL1       -0.1908
     19 C          68.5794   93.4096   15.9690 C.3     1  UNL1        0.0946
     20 C          67.5670   92.5044   15.3319 C.2     1  UNL1        0.2232
     21 O          68.0193   91.3200   14.5301 O.2     1  UNL1       -0.2751
     22 N          66.1025   92.7836   15.4967 N.am    1  UNL1       -0.3021
     23 H          65.8057   93.5609   16.0229 H       1  UNL1        0.1497
@<TRIPOS>BOND
     1    19    20    1
     2    20    21    2
     3    20    22   am
     4    22     1    1
     5     1     2    1
     6     2     3    1
     7     3     4    1
     8     4     5    1
     9     5     6   ar
    10     6    11    1
    11    11    12   ar
    12    12    13   ar
    13    13    14   ar
    14    14    17    1
    15    17    18    3
    16    14    15   ar
    17    15    16   ar
    18     6     7   ar
    19     7     8   ar
    20     8     9   ar
    21     9    10   ar
    22    10     1    1
    23    10     5   ar
    24    16    11   ar
    25    22    23    1
@<TRIPOS>MOLECULE
*****
 23 25 0 0 0
SMALL
GASTEIGER

@<TRIPOS>ATOM
      1 C          66.1057   93.8720   11.8976 C.3     1  UNL1        0.0952
      2 C          66.7656   94.1823   13.2084 C.3     1  UNL1        0.0245
      3 C          66.5082   93.3115   14.4023 C.3     1  UNL1        0.0067
      4 C          65.5908   92.1305   14.2855 C.3     1  UNL1        0.0263
      5 C          64.9310   91.8203   12.9747 C.ar    1  UNL1       -0.0216
      6 C          64.0136   90.6392   12.8578 C.ar    1  UNL1        0.0150
      7 C          63.3537   90.3289   11.5470 C.ar    1  UNL1        0.0985
      8 N          63.6111   91.1997   10.3530 N.ar    1  UNL1       -0.2426
      9 C          64.5284   92.3807   10.4699 C.ar    1  UNL1        0.0959
     10 C          65.1884   92.6910   11.7807 C.ar    1  UNL1        0.0107
     11 C          63.7561   89.7685   14.0517 C.ar    1  UNL1        0.0012
     12 C          63.0903   90.3408   15.2679 C.ar    1  UNL1        0.0007
     13 C          62.8329   89.4701   16.4618 C.ar    1  UNL1        0.0103
     14 C          63.2413   88.0270   16.4396 C.ar    1  UNL1        0.0684
     15 C          63.9071   87.4545   15.2235 C.ar    1  UNL1        0.0103
     16 C          64.1645   88.3252   14.0295 C.ar    1  UNL1        0.0007
     17 C          62.9838   87.1562   17.6336 C.1     1  UNL1        0.1004
     18 N          62.7264   86.2855   18.8276 N.1     1  UNL1       -0.1908
     19 C          67.7328   95.2765    8.5614 C.3     1  UNL1        0.0946
     20 C          67.4754   94.4057    9.7554 C.2     1  UNL1        0.2232
     21 O          68.3303   93.1978   10.0011 O.2     1  UNL1       -0.2751
     22 N          66.3631   94.7428   10.7036 N.am    1  UNL1       -0.3021
     23 H          65.8021   95.5355   10.5423 H       1  UNL1        0.1497
@<TRIPOS>BOND
     1    19    20    1
     2    20    21    2
     3    20    22   am
     4    22     1    1
     5     1     2    1
     6     2     3    1
     7     3     4    1
     8     4     5    1
     9     5     6   ar
    10     6    11    1
    11    11    12   ar
    12    12    13   ar
    13    13    14   ar
    14    14    17    1
    15    17    18    3
    16    14    15   ar
    17    15    16   ar
    18     6     7   ar
    19     7     8   ar
    20     8     9   ar
    21     9    10   ar
    22    10     1    1
    23    10     5   ar
    24    16    11   ar
    25    22    23    1
@<TRIPOS>MOLECULE
*****
 23 25 0 0 0
SMALL
GASTEIGER

@<TRIPOS>ATOM
      1 C          63.5014   90.1675   14.3710 C.3     1  UNL1        0.0952
      2 C          62.8027   89.8607   13.0796 C.3     1  UNL1        0.0245
      3 C          63.1580   90.6200   11.8358 C.3     1  UNL1        0.0067
      4 C          64.2121   91.6862   11.8834 C.3     1  UNL1        0.0263
      5 C          64.9107   91.9930   13.1747 C.ar    1  UNL1       -0.0216
      6 C          65.9648   93.0592   13.2223 C.ar    1  UNL1        0.0150
      7 C          66.6635   93.3660   14.5137 C.ar    1  UNL1        0.0985
      8 N          66.3082   92.6066   15.7575 N.ar    1  UNL1       -0.2426
      9 C          65.2541   91.5405   15.7100 C.ar    1  UNL1        0.0959
     10 C          64.5554   91.2336   14.4186 C.ar    1  UNL1        0.0107
     11 C          66.3202   93.8185   11.9785 C.ar    1  UNL1        0.0012
     12 C          66.8822   93.0933   10.7919 C.ar    1  UNL1        0.0007
     13 C          67.2376   93.8527    9.5480 C.ar    1  UNL1        0.0103
     14 C          67.0309   95.3372    9.4908 C.ar    1  UNL1        0.0684
     15 C          66.4688   96.0625   10.6775 C.ar    1  UNL1        0.0103
     16 C          66.1134   95.3032   11.9213 C.ar    1  UNL1        0.0007
     17 C          67.3862   96.0966    8.2470 C.1     1  UNL1        0.1004
     18 N          67.7415   96.8560    7.0032 N.1     1  UNL1       -0.1908
     19 C          63.1642   87.2017   16.9864 C.3     1  UNL1        0.0946
     20 C          63.5196   87.9610   15.7426 C.2     1  UNL1        0.2232
     21 O          64.2485   87.2732   14.6264 O.2     1  UNL1       -0.2751
     22 N          63.1460   89.4081   15.6148 N.am    1  UNL1       -0.3021
     23 H          62.6676   89.8595   16.3474 H       1  UNL1        0.1497
@<TRIPOS>BOND
     1    19    20    1
     2    20    21    2
     3    20    22   am
     4    22     1    1
     5     1     2    1
     6     2     3    1
     7     3     4    1
     8     4     5    1
     9     5     6   ar
    10     6    11    1
    11    11    12   ar
    12    12    13   ar
    13    13    14   ar
    14    14    17    1
    15    17    18    3
    16    14    15   ar
    17    15    16   ar
    18     6     7   ar
    19     7     8   ar
    20     8     9   ar
    21     9    10   ar
    22    10     1    1
    23    10     5   ar
    24    16    11   ar
    25    22    23    1
@<TRIPOS>MOLECULE
*****
 23 25 0 0 0
SMALL
GASTEIGER

@<TRIPOS>ATOM
      1 C          64.1547   90.2887   13.2363 C.3     1  UNL1        0.0952
      2 C          64.7180   89.8135   14.5428 C.3     1  UNL1        0.0245
      3 C          64.6267   88.3635   14.9159 C.3     1  UNL1        0.0067
      4 C          63.9722   87.3887   13.9826 C.3     1  UNL1        0.0263
      5 C          63.4089   87.8638   12.6761 C.ar    1  UNL1       -0.0216
      6 C          62.7543   86.8890   11.7427 C.ar    1  UNL1        0.0150
      7 C          62.1910   87.3641   10.4362 C.ar    1  UNL1        0.0985
      8 N          62.2823   88.8141   10.0631 N.ar    1  UNL1       -0.2426
      9 C          62.9368   89.7890   10.9964 C.ar    1  UNL1        0.0959
     10 C          63.5001   89.3138   12.3030 C.ar    1  UNL1        0.0107
     11 C          62.6630   85.4390   12.1158 C.ar    1  UNL1        0.0012
     12 C          62.7983   84.3828   11.0594 C.ar    1  UNL1        0.0007
     13 C          62.7070   82.9328   11.4325 C.ar    1  UNL1        0.0103
     14 C          62.4805   82.5390   12.8620 C.ar    1  UNL1        0.0684
     15 C          62.3452   83.5953   13.9185 C.ar    1  UNL1        0.0103
     16 C          62.4365   85.0453   13.5454 C.ar    1  UNL1        0.0007
     17 C          62.3892   81.0890   13.2351 C.1     1  UNL1        0.1004
     18 N          62.2979   79.6391   13.6082 N.1     1  UNL1       -0.1908
     19 C          65.6794   93.8411   12.3389 C.3     1  UNL1        0.0946
     20 C          65.5881   92.3911   12.7120 C.2     1  UNL1        0.2232
     21 O          66.8390   91.5936   12.9339 O.2     1  UNL1       -0.2751
     22 N          64.2460   91.7387   12.8632 N.am    1  UNL1       -0.3021
     23 H          63.4250   92.2621   12.7176 H       1  UNL1        0.1497
@<TRIPOS>BOND
     1    19    20    1
     2    20    21    2
     3    20    22   am
     4    22     1    1
     5     1     2    1
     6     2     3    1
     7     3     4    1
     8     4     5    1
     9     5     6   ar
    10     6    11    1
    11    11    12   ar
    12    12    13   ar
    13    13    14   ar
    14    14    17    1
    15    17    18    3
    16    14    15   ar
    17    15    16   ar
    18     6     7   ar
    19     7     8   ar
    20     8     9   ar
    21     9    10   ar
    22    10     1    1
    23    10     5   ar
    24    16    11   ar
    25    22    23    1
@<TRIPOS>MOLECULE
*****
 23 25 0 0 0
SMALL
GASTEIGER

@<TRIPOS>ATOM
      1 C          61.6174   86.6319   10.4719 C.3     1  UNL1        0.0952
      2 C          62.2757   85.7429   11.4849 C.3     1  UNL1        0.0245
      3 C          63.1711   86.3346   12.5329 C.3     1  UNL1        0.0067
      4 C          63.4081   87.8153   12.5678 C.3     1  UNL1        0.0263
      5 C          62.7499   88.7043   11.5548 C.ar    1  UNL1       -0.0216
      6 C          62.9869   90.1851   11.5897 C.ar    1  UNL1        0.0150
      7 C          62.3287   91.0741   10.5766 C.ar    1  UNL1        0.0985
      8 N          61.4333   90.4824    9.5286 N.ar    1  UNL1       -0.2426
      9 C          61.1962   89.0017    9.4937 C.ar    1  UNL1        0.0959
     10 C          61.8545   88.1126   10.5068 C.ar    1  UNL1        0.0107
     11 C          63.8823   90.7768   12.6376 C.ar    1  UNL1        0.0012
     12 C          63.6827   90.4228   14.0815 C.ar    1  UNL1        0.0007
     13 C          64.5781   91.0145   15.1294 C.ar    1  UNL1        0.0103
     14 C          65.6730   91.9602   14.7335 C.ar    1  UNL1        0.0684
     15 C          65.8726   92.3142   13.2896 C.ar    1  UNL1        0.0103
     16 C          64.9773   91.7225   12.2416 C.ar    1  UNL1        0.0007
     17 C          66.5684   92.5519   15.7815 C.1     1  UNL1        0.1004
     18 N          67.4637   93.1436   16.8294 N.1     1  UNL1       -0.1908
     19 C          60.4059   84.9703    7.0776 C.3     1  UNL1        0.0946
     20 C          61.3012   85.5620    8.1255 C.2     1  UNL1        0.2232
     21 O          62.7759   85.6756    7.8751 O.2     1  UNL1       -0.2751
     22 N          60.7221   86.0402    9.4239 N.am    1  UNL1       -0.3021
     23 H          59.7542   85.9657    9.5883 H       1  UNL1        0.1497
@<TRIPOS>BOND
     1    19    20    1
     2    20    21    2
     3    20    22   am
     4    22     1    1
     5     1     2    1
     6     2     3    1
     7     3     4    1
     8     4     5    1
     9     5     6   ar
    10     6    11    1
    11    11    12   ar
    12    12    13   ar
    13    13    14   ar
    14    14    17    1
    15    17    18    3
    16    14    15   ar
    17    15    16   ar
    18     6     7   ar
    19     7     8   ar
    20     8     9   ar
    21     9    10   ar
    22    10     1    1
    23    10     5   ar
    24    16    11   ar
    25    22    23    1
@<TRIPOS>MOLECULE
*****
 23 25 0 0 0
SMALL
GASTEIGER

@<TRIPOS>ATOM
      1 C          65.7324   93.1445   12.8481 C.3     1  UNL1        0.0952
      2 C          66.5404   92.8495   14.0770 C.3     1  UNL1        0.0245
      3 C          66.4463   91.5029   14.7311 C.3     1  UNL1        0.0067
      4 C          65.5444   90.4512   14.1562 C.3     1  UNL1        0.0263
      5 C          64.7365   90.7462   12.9273 C.ar    1  UNL1       -0.0216
      6 C          63.8345   89.6945   12.3524 C.ar    1  UNL1        0.0150
      7 C          63.0265   89.9895   11.1236 C.ar    1  UNL1        0.0985
      8 N          63.1206   91.3361   10.4695 N.ar    1  UNL1       -0.2426
      9 C          64.0225   92.3878   11.0443 C.ar    1  UNL1        0.0959
     10 C          64.8305   92.0928   12.2733 C.ar    1  UNL1        0.0107
     11 C          63.7404   88.3479   13.0065 C.ar    1  UNL1        0.0012
     12 C          63.1202   87.1979   12.2697 C.ar    1  UNL1        0.0007
     13 C          63.0262   85.8513   12.9238 C.ar    1  UNL1        0.0103
     14 C          63.5524   85.6547   14.3146 C.ar    1  UNL1        0.0684
     15 C          64.1726   86.8047   15.0514 C.ar    1  UNL1        0.0103
     16 C          64.2666   88.1513   14.3974 C.ar    1  UNL1        0.0007
     17 C          63.4583   84.3081   14.9686 C.1     1  UNL1        0.1004
     18 N          63.3643   82.9614   15.6227 N.1     1  UNL1       -0.1908
     19 C          66.7991   96.0286   10.3394 C.3     1  UNL1        0.0946
     20 C          66.7050   94.6820   10.9934 C.2     1  UNL1        0.2232
     21 O          67.4897   93.5263   10.4468 O.2     1  UNL1       -0.2751
     22 N          65.8265   94.4911   12.1941 N.am    1  UNL1       -0.3021
     23 H          65.3115   95.2496   12.5529 H       1  UNL1        0.1497
@<TRIPOS>BOND
     1    19    20    1
     2    20    21    2
     3    20    22   am
     4    22     1    1
     5     1     2    1
     6     2     3    1
     7     3     4    1
     8     4     5    1
     9     5     6   ar
    10     6    11    1
    11    11    12   ar
    12    12    13   ar
    13    13    14   ar
    14    14    17    1
    15    17    18    3
    16    14    15   ar
    17    15    16   ar
    18     6     7   ar
    19     7     8   ar
    20     8     9   ar
    21     9    10   ar
    22    10     1    1
    23    10     5   ar
    24    16    11   ar
    25    22    23    1
@<TRIPOS>MOLECULE
*****
 23 25 0 0 0
SMALL
GASTEIGER

@<TRIPOS>ATOM
      1 C          63.2244   90.2542   12.8012 C.3     1  UNL1        0.0952
      2 C          62.9222   91.1716   11.6536 C.3     1  UNL1        0.0245
      3 C          62.5638   90.6024   10.3128 C.3     1  UNL1        0.0067
      4 C          62.5078   89.1160   10.1196 C.3     1  UNL1        0.0263
      5 C          62.8100   88.1987   11.2673 C.ar    1  UNL1       -0.0216
      6 C          62.7539   86.7122   11.0742 C.ar    1  UNL1        0.0150
      7 C          63.0562   85.7949   12.2218 C.ar    1  UNL1        0.0985
      8 N          63.4145   86.3640   13.5626 N.ar    1  UNL1       -0.2426
      9 C          63.4706   87.8504   13.7558 C.ar    1  UNL1        0.0959
     10 C          63.1683   88.7678   12.6081 C.ar    1  UNL1        0.0107
     11 C          62.3956   86.1431    9.7334 C.ar    1  UNL1        0.0012
     12 C          63.3872   85.3009    8.9868 C.ar    1  UNL1        0.0007
     13 C          63.0289   84.7317    7.6460 C.ar    1  UNL1        0.0103
     14 C          61.6789   85.0048    7.0518 C.ar    1  UNL1        0.0684
     15 C          60.6873   85.8471    7.7984 C.ar    1  UNL1        0.0103
     16 C          61.0456   86.4162    9.1392 C.ar    1  UNL1        0.0007
     17 C          61.3206   84.4357    5.7111 C.1     1  UNL1        0.1004
     18 N          60.9623   83.8666    4.3703 N.1     1  UNL1       -0.1908
     19 C          65.3111   91.9568   15.7161 C.3     1  UNL1        0.0946
     20 C          64.9528   91.3877   14.3754 C.2     1  UNL1        0.2232
     21 O          65.9645   91.3830   13.2679 O.2     1  UNL1       -0.2751
     22 N          63.5828   90.8234   14.1420 N.am    1  UNL1       -0.3021
     23 H          62.9187   90.8265   14.8688 H       1  UNL1        0.1497
@<TRIPOS>BOND
     1    19    20    1
     2    20    21    2
     3    20    22   am
     4    22     1    1
     5     1     2    1
     6     2     3    1
     7     3     4    1
     8     4     5    1
     9     5     6   ar
    10     6    11    1
    11    11    12   ar
    12    12    13   ar
    13    13    14   ar
    14    14    17    1
    15    17    18    3
    16    14    15   ar
    17    15    16   ar
    18     6     7   ar
    19     7     8   ar
    20     8     9   ar
    21     9    10   ar
    22    10     1    1
    23    10     5   ar
    24    16    11   ar
    25    22    23    1
@<TRIPOS>MOLECULE
*****
 23 25 0 0 0
SMALL
GASTEIGER

@<TRIPOS>ATOM
      1 C          63.2198   83.2458   11.5870 C.3     1  UNL1        0.0952
      2 C          62.6827   84.2691   10.6308 C.3     1  UNL1        0.0245
      3 C          62.5814   85.7061   11.0490 C.3     1  UNL1        0.0067
      4 C          63.0171   86.1198   12.4234 C.3     1  UNL1        0.0263
      5 C          63.5542   85.0965   13.3796 C.ar    1  UNL1       -0.0216
      6 C          63.9899   85.5101   14.7541 C.ar    1  UNL1        0.0150
      7 C          64.5270   84.4868   15.7103 C.ar    1  UNL1        0.0985
      8 N          64.6283   83.0498   15.2921 N.ar    1  UNL1       -0.2426
      9 C          64.1926   82.6362   13.9177 C.ar    1  UNL1        0.0959
     10 C          63.6555   83.6595   12.9614 C.ar    1  UNL1        0.0107
     11 C          63.8886   86.9471   15.1723 C.ar    1  UNL1        0.0012
     12 C          64.4453   88.0257   14.2910 C.ar    1  UNL1        0.0007
     13 C          64.3439   89.4626   14.7092 C.ar    1  UNL1        0.0103
     14 C          63.6859   89.8210   16.0086 C.ar    1  UNL1        0.0684
     15 C          63.1291   88.7423   16.8899 C.ar    1  UNL1        0.0103
     16 C          63.2304   87.3054   16.4717 C.ar    1  UNL1        0.0007
     17 C          63.5845   91.2579   16.4268 C.1     1  UNL1        0.1004
     18 N          63.4832   92.6949   16.8450 N.1     1  UNL1       -0.1908
     19 C          62.6490   79.3197   11.4886 C.3     1  UNL1        0.0946
     20 C          62.5477   80.7567   11.9067 C.2     1  UNL1        0.2232
     21 O          61.6728   81.1414   13.0629 O.2     1  UNL1       -0.2751
     22 N          63.3211   81.8089   11.1688 N.am    1  UNL1       -0.3021
     23 H          63.8953   81.5564   10.4100 H       1  UNL1        0.1497
@<TRIPOS>BOND
     1    19    20    1
     2    20    21    2
     3    20    22   am
     4    22     1    1
     5     1     2    1
     6     2     3    1
     7     3     4    1
     8     4     5    1
     9     5     6   ar
    10     6    11    1
    11    11    12   ar
    12    12    13   ar
    13    13    14   ar
    14    14    17    1
    15    17    18    3
    16    14    15   ar
    17    15    16   ar
    18     6     7   ar
    19     7     8   ar
    20     8     9   ar
    21     9    10   ar
    22    10     1    1
    23    10     5   ar
    24    16    11   ar
    25    22    23    1
