@<TRIPOS>MOLECULE
*****
 23 25 0 0 0
SMALL
GASTEIGER

@<TRIPOS>ATOM
      1 C          63.7027   88.2561   13.3915 C.ar    1  UNL1        0.0017
      2 C          64.3888   87.7357   14.6196 C.ar    1  UNL1       -0.0023
      3 C          64.5108   86.2572   14.8409 C.ar    1  UNL1       -0.0002
      4 C          63.9467   85.2991   13.8340 C.ar    1  UNL1        0.0030
      5 C          64.0688   83.8204   14.0553 C.ar    1  UNL1        0.0371
      6 C          63.5047   82.8623   13.0484 C.ar    1  UNL1        0.1443
      7 C          62.8186   83.3828   11.8202 C.ar    1  UNL1        0.0371
      8 C          62.6966   84.8614   11.5989 C.ar    1  UNL1        0.0031
      9 C          63.2606   85.8195   12.6058 C.ar    1  UNL1       -0.0001
     10 C          63.1386   87.2980   12.3846 C.ar    1  UNL1       -0.0023
     11 C          63.5807   89.7347   13.1702 C.3     1  UNL1        0.1493
     12 N          64.2247   90.6922   14.1285 N.ar    1  UNL1       -0.1486
     13 N          65.6134   91.2487   14.0194 N.ar    1  UNL1       -0.1261
     14 C          65.8401   92.1617   15.1877 C.ar    1  UNL1        0.2448
     15 N          64.5915   92.1694   16.0190 N.ar    1  UNL1       -0.1044
     16 N          63.5932   91.2612   15.3644 N.ar    1  UNL1       -0.0447
     17 C          63.5275   91.0085   10.9064 C.3     1  UNL1        0.0024
     18 C          62.8147   90.2558   11.9905 C.3     1  UNL1        0.0286
     19 C          61.3357   90.0242   11.8949 C.3     1  UNL1        0.0024
     20 O          63.6267   81.3838   13.2697 O.3     1  UNL1       -0.4236
     21 C          62.4394   80.4927   13.0543 C.3     1  UNL1        0.5087
     22 F          61.1892   80.7021   13.8563 F       1  UNL1       -0.1550
     23 F          62.5023   79.3922   12.0370 F       1  UNL1       -0.1550
@<TRIPOS>BOND
     1    17    18    1
     2    18    19    1
     3    18    11    1
     4    11     1    1
     5     1     2   ar
     6     2     3   ar
     7     3     4   ar
     8     4     5   ar
     9     5     6   ar
    10     6    20    1
    11    20    21    1
    12    21    22    1
    13    21    23    1
    14     6     7   ar
    15     7     8   ar
    16     8     9   ar
    17     9    10   ar
    18    11    12    1
    19    12    13   ar
    20    13    14   ar
    21    14    15   ar
    22    15    16   ar
    23    10     1   ar
    24    16    12   ar
    25     9     4   ar
@<TRIPOS>MOLECULE
*****
 23 25 0 0 0
SMALL
GASTEIGER

@<TRIPOS>ATOM
      1 C          62.8163   90.0446   11.2247 C.ar    1  UNL1        0.0017
      2 C          63.3771   91.0840   10.3000 C.ar    1  UNL1       -0.0023
      3 C          64.4163   92.0458   10.7948 C.ar    1  UNL1       -0.0002
      4 C          64.8948   91.9681   12.2143 C.ar    1  UNL1        0.0030
      5 C          65.9342   92.9300   12.7091 C.ar    1  UNL1        0.0371
      6 C          66.4127   92.8523   14.1286 C.ar    1  UNL1        0.1443
      7 C          65.8519   91.8128   15.0534 C.ar    1  UNL1        0.0371
      8 C          64.8126   90.8511   14.5586 C.ar    1  UNL1        0.0031
      9 C          64.3341   90.9287   13.1390 C.ar    1  UNL1       -0.0001
     10 C          63.2948   89.9669   12.6442 C.ar    1  UNL1       -0.0023
     11 C          61.7770   89.0827   10.7299 C.3     1  UNL1        0.1493
     12 N          62.0660   87.6109   10.7104 N.ar    1  UNL1       -0.1486
     13 N          62.1399   86.7110   11.9082 N.ar    1  UNL1       -0.1261
     14 C          62.4513   85.3245   11.4278 C.ar    1  UNL1        0.2448
     15 N          62.5698   85.3676    9.9331 N.ar    1  UNL1       -0.1044
     16 N          62.3317   86.7806    9.4898 N.ar    1  UNL1       -0.0447
     17 C          59.5967   90.4272   11.1643 C.3     1  UNL1        0.0024
     18 C          60.4489   89.5926   10.2547 C.3     1  UNL1        0.0286
     19 C          59.9728   89.2681    8.8697 C.3     1  UNL1        0.0024
     20 O          67.4519   93.8141   14.6235 O.3     1  UNL1       -0.4236
     21 C          68.5097   93.3488   15.5798 C.3     1  UNL1        0.5087
     22 F          68.6993   91.8826   15.8331 F       1  UNL1       -0.1550
     23 F          69.3780   94.3498   16.2829 F       1  UNL1       -0.1550
@<TRIPOS>BOND
     1    17    18    1
     2    18    19    1
     3    18    11    1
     4    11     1    1
     5     1     2   ar
     6     2     3   ar
     7     3     4   ar
     8     4     5   ar
     9     5     6   ar
    10     6    20    1
    11    20    21    1
    12    21    22    1
    13    21    23    1
    14     6     7   ar
    15     7     8   ar
    16     8     9   ar
    17     9    10   ar
    18    11    12    1
    19    12    13   ar
    20    13    14   ar
    21    14    15   ar
    22    15    16   ar
    23    10     1   ar
    24    16    12   ar
    25     9     4   ar
@<TRIPOS>MOLECULE
*****
 23 25 0 0 0
SMALL
GASTEIGER

@<TRIPOS>ATOM
      1 C          63.2309   88.2801   12.5790 C.ar    1  UNL1        0.0017
      2 C          62.5349   87.4953   11.5068 C.ar    1  UNL1       -0.0023
      3 C          62.4847   85.9983   11.5860 C.ar    1  UNL1       -0.0002
      4 C          63.1305   85.2860   12.7374 C.ar    1  UNL1        0.0030
      5 C          63.0803   83.7889   12.8165 C.ar    1  UNL1        0.0371
      6 C          63.7261   83.0767   13.9679 C.ar    1  UNL1        0.1443
      7 C          64.4222   83.8615   15.0401 C.ar    1  UNL1        0.0371
      8 C          64.4723   85.3586   14.9609 C.ar    1  UNL1        0.0031
      9 C          63.8265   86.0708   13.8096 C.ar    1  UNL1       -0.0001
     10 C          63.8767   87.5679   13.7304 C.ar    1  UNL1       -0.0023
     11 C          63.2811   89.7772   12.4999 C.3     1  UNL1        0.1493
     12 N          63.9895   90.5612   13.5646 N.ar    1  UNL1       -0.1486
     13 N          65.3847   91.1053   13.4779 N.ar    1  UNL1       -0.1261
     14 C          65.6846   91.8191   14.7626 C.ar    1  UNL1        0.2448
     15 N          64.4748   91.7161   15.6434 N.ar    1  UNL1       -0.1044
     16 N          63.4272   90.9387   14.9030 N.ar    1  UNL1       -0.0447
     17 C          61.1293   90.4700   11.2194 C.3     1  UNL1        0.0024
     18 C          62.6229   90.4903   11.3561 C.3     1  UNL1        0.0286
     19 C          63.4583   91.2237   10.3491 C.3     1  UNL1        0.0024
     20 O          63.6760   81.5796   14.0470 O.3     1  UNL1       -0.4236
     21 C          62.3816   80.8590   13.8112 C.3     1  UNL1        0.5087
     22 F          62.3430   79.6632   12.9065 F       1  UNL1       -0.1550
     23 F          61.1260   81.3344   14.4801 F       1  UNL1       -0.1550
@<TRIPOS>BOND
     1    17    18    1
     2    18    19    1
     3    18    11    1
     4    11     1    1
     5     1     2   ar
     6     2     3   ar
     7     3     4   ar
     8     4     5   ar
     9     5     6   ar
    10     6    20    1
    11    20    21    1
    12    21    22    1
    13    21    23    1
    14     6     7   ar
    15     7     8   ar
    16     8     9   ar
    17     9    10   ar
    18    11    12    1
    19    12    13   ar
    20    13    14   ar
    21    14    15   ar
    22    15    16   ar
    23    10     1   ar
    24    16    12   ar
    25     9     4   ar
@<TRIPOS>MOLECULE
*****
 23 25 0 0 0
SMALL
GASTEIGER

@<TRIPOS>ATOM
      1 C          62.4006   88.2948   10.5011 C.ar    1  UNL1        0.0017
      2 C          62.4942   89.6665    9.9015 C.ar    1  UNL1       -0.0023
      3 C          63.1124   90.7866   10.6844 C.ar    1  UNL1       -0.0002
      4 C          63.6371   90.5351   12.0669 C.ar    1  UNL1        0.0030
      5 C          64.2554   91.6553   12.8498 C.ar    1  UNL1        0.0371
      6 C          64.7800   91.4038   14.2324 C.ar    1  UNL1        0.1443
      7 C          64.6864   90.0320   14.8321 C.ar    1  UNL1        0.0371
      8 C          64.0681   88.9118   14.0492 C.ar    1  UNL1        0.0031
      9 C          63.5435   89.1634   12.6666 C.ar    1  UNL1       -0.0001
     10 C          62.9252   88.0432   11.8837 C.ar    1  UNL1       -0.0023
     11 C          61.7823   87.1745    9.7182 C.3     1  UNL1        0.1493
     12 N          60.5943   87.4387    8.8414 N.ar    1  UNL1       -0.1486
     13 N          60.1820   88.7729    8.2937 N.ar    1  UNL1       -0.1261
     14 C          58.9429   88.5739    7.4721 C.ar    1  UNL1        0.2448
     15 N          58.5894   87.1167    7.5119 N.ar    1  UNL1       -0.1044
     16 N          59.6100   86.4152    8.3582 N.ar    1  UNL1       -0.0447
     17 C          63.0931   85.2034    8.6474 C.3     1  UNL1        0.0024
     18 C          62.3520   85.7901    9.8122 C.3     1  UNL1        0.0286
     19 C          62.1808   84.9925   11.0709 C.3     1  UNL1        0.0024
     20 O          65.3982   92.5239   15.0153 O.3     1  UNL1       -0.4236
     21 C          66.8587   92.4846   15.3553 C.3     1  UNL1        0.5087
     22 F          67.3548   93.1416   16.6091 F       1  UNL1       -0.1550
     23 F          67.8230   91.7882   14.4414 F       1  UNL1       -0.1550
@<TRIPOS>BOND
     1    17    18    1
     2    18    19    1
     3    18    11    1
     4    11     1    1
     5     1     2   ar
     6     2     3   ar
     7     3     4   ar
     8     4     5   ar
     9     5     6   ar
    10     6    20    1
    11    20    21    1
    12    21    22    1
    13    21    23    1
    14     6     7   ar
    15     7     8   ar
    16     8     9   ar
    17     9    10   ar
    18    11    12    1
    19    12    13   ar
    20    13    14   ar
    21    14    15   ar
    22    15    16   ar
    23    10     1   ar
    24    16    12   ar
    25     9     4   ar
@<TRIPOS>MOLECULE
*****
 23 25 0 0 0
SMALL
GASTEIGER

@<TRIPOS>ATOM
      1 C          64.0374   89.0936   13.8738 C.ar    1  UNL1        0.0017
      2 C          63.2420   89.1214   12.6024 C.ar    1  UNL1       -0.0023
      3 C          62.8308   87.8365   11.9468 C.ar    1  UNL1       -0.0002
      4 C          63.2149   86.5238   12.5626 C.ar    1  UNL1        0.0030
      5 C          62.8036   85.2389   11.9070 C.ar    1  UNL1        0.0371
      6 C          63.1877   83.9262   12.5228 C.ar    1  UNL1        0.1443
      7 C          63.9831   83.8984   13.7943 C.ar    1  UNL1        0.0371
      8 C          64.3944   85.1833   14.4499 C.ar    1  UNL1        0.0031
      9 C          64.0103   86.4960   13.8340 C.ar    1  UNL1       -0.0001
     10 C          64.4215   87.7809   14.4896 C.ar    1  UNL1       -0.0023
     11 C          64.4487   90.3786   14.5295 C.3     1  UNL1        0.1493
     12 N          65.3538   91.3326   13.8079 N.ar    1  UNL1       -0.1486
     13 N          64.9342   92.3348   12.7737 N.ar    1  UNL1       -0.1261
     14 C          66.1585   93.0735   12.3204 C.ar    1  UNL1        0.2448
     15 N          67.3348   92.5278   13.0745 N.ar    1  UNL1       -0.1044
     16 N          66.8375   91.4519   13.9938 N.ar    1  UNL1       -0.0447
     17 C          63.0817   89.7378   16.6439 C.3     1  UNL1        0.0024
     18 C          63.9549   90.7095   15.9066 C.3     1  UNL1        0.0286
     19 C          64.3344   92.0119   16.5466 C.3     1  UNL1        0.0024
     20 O          62.7764   82.6413   11.8672 O.3     1  UNL1       -0.4236
     21 C          63.5263   82.1365   10.6701 C.3     1  UNL1        0.5087
     22 F          63.1656   80.8134   10.0623 F       1  UNL1       -0.1550
     23 F          64.6369   82.9547   10.0809 F       1  UNL1       -0.1550
@<TRIPOS>BOND
     1    17    18    1
     2    18    19    1
     3    18    11    1
     4    11     1    1
     5     1     2   ar
     6     2     3   ar
     7     3     4   ar
     8     4     5   ar
     9     5     6   ar
    10     6    20    1
    11    20    21    1
    12    21    22    1
    13    21    23    1
    14     6     7   ar
    15     7     8   ar
    16     8     9   ar
    17     9    10   ar
    18    11    12    1
    19    12    13   ar
    20    13    14   ar
    21    14    15   ar
    22    15    16   ar
    23    10     1   ar
    24    16    12   ar
    25     9     4   ar
@<TRIPOS>MOLECULE
*****
 23 25 0 0 0
SMALL
GASTEIGER

@<TRIPOS>ATOM
      1 C          62.4663   88.7419   11.0062 C.ar    1  UNL1        0.0017
      2 C          62.6205   89.9604   10.1452 C.ar    1  UNL1       -0.0023
      3 C          63.4193   91.1305   10.6378 C.ar    1  UNL1       -0.0002
      4 C          64.0640   91.0821   11.9913 C.ar    1  UNL1        0.0030
      5 C          64.8628   92.2522   12.4839 C.ar    1  UNL1        0.0371
      6 C          65.5075   92.2038   13.8374 C.ar    1  UNL1        0.1443
      7 C          65.3532   90.9852   14.6984 C.ar    1  UNL1        0.0371
      8 C          64.5544   89.8151   14.2059 C.ar    1  UNL1        0.0031
      9 C          63.9098   89.8635   12.8523 C.ar    1  UNL1       -0.0001
     10 C          63.1109   88.6934   12.3597 C.ar    1  UNL1       -0.0023
     11 C          61.6674   87.5717   10.5136 C.3     1  UNL1        0.1493
     12 N          62.3178   86.2280   10.3669 N.ar    1  UNL1       -0.1486
     13 N          62.8513   85.6410    9.0938 N.ar    1  UNL1       -0.1261
     14 C          63.4122   84.2856    9.4076 C.ar    1  UNL1        0.2448
     15 N          63.2253   84.0350   10.8747 N.ar    1  UNL1       -0.1044
     16 N          62.5489   85.2354   11.4675 N.ar    1  UNL1       -0.0447
     17 C          59.6640   87.1187    8.9226 C.3     1  UNL1        0.0024
     18 C          60.2182   87.7452   10.1678 C.3     1  UNL1        0.0286
     19 C          59.3231   88.5451   11.0672 C.3     1  UNL1        0.0024
     20 O          66.3063   93.3739   14.3300 O.3     1  UNL1       -0.4236
     21 C          67.3707   93.1720   15.3675 C.3     1  UNL1        0.5087
     22 F          68.8151   93.3519   15.0051 F       1  UNL1       -0.1550
     23 F          66.9906   92.7900   16.7674 F       1  UNL1       -0.1550
@<TRIPOS>BOND
     1    17    18    1
     2    18    19    1
     3    18    11    1
     4    11     1    1
     5     1     2   ar
     6     2     3   ar
     7     3     4   ar
     8     4     5   ar
     9     5     6   ar
    10     6    20    1
    11    20    21    1
    12    21    22    1
    13    21    23    1
    14     6     7   ar
    15     7     8   ar
    16     8     9   ar
    17     9    10   ar
    18    11    12    1
    19    12    13   ar
    20    13    14   ar
    21    14    15   ar
    22    15    16   ar
    23    10     1   ar
    24    16    12   ar
    25     9     4   ar
@<TRIPOS>MOLECULE
*****
 23 25 0 0 0
SMALL
GASTEIGER

@<TRIPOS>ATOM
      1 C          65.0891   91.5490   12.8919 C.ar    1  UNL1        0.0017
      2 C          64.8818   90.3999   13.8336 C.ar    1  UNL1       -0.0023
      3 C          63.8743   89.3370   13.5093 C.ar    1  UNL1       -0.0002
      4 C          63.0742   89.4231   12.2434 C.ar    1  UNL1        0.0030
      5 C          62.0668   88.3600   11.9192 C.ar    1  UNL1        0.0371
      6 C          61.2667   88.4461   10.6534 C.ar    1  UNL1        0.1443
      7 C          61.4740   89.5952    9.7117 C.ar    1  UNL1        0.0371
      8 C          62.4815   90.6581   10.0359 C.ar    1  UNL1        0.0031
      9 C          63.2816   90.5721   11.3018 C.ar    1  UNL1       -0.0001
     10 C          64.2890   91.6350   11.6260 C.ar    1  UNL1       -0.0023
     11 C          66.0966   92.6120   13.2161 C.3     1  UNL1        0.1493
     12 N          66.3746   93.7076   12.2300 N.ar    1  UNL1       -0.1486
     13 N          67.0028   93.5388   10.8784 N.ar    1  UNL1       -0.1261
     14 C          67.0897   94.8912   10.2354 C.ar    1  UNL1        0.2448
     15 N          66.5151   95.8958   11.1896 N.ar    1  UNL1       -0.1044
     16 N          66.0731   95.1643   12.4223 N.ar    1  UNL1       -0.0447
     17 C          68.3016   92.3118   14.5569 C.3     1  UNL1        0.0024
     18 C          66.8260   92.5794   14.5264 C.3     1  UNL1        0.0286
     19 C          66.0798   92.8144   15.8062 C.3     1  UNL1        0.0024
     20 O          60.2592   87.3831   10.3291 O.3     1  UNL1       -0.4236
     21 C          60.0709   86.9362    8.9096 C.3     1  UNL1        0.5087
     22 F          58.7237   87.0497    8.2601 F       1  UNL1       -0.1550
     23 F          61.2299   86.3758    8.1398 F       1  UNL1       -0.1550
@<TRIPOS>BOND
     1    17    18    1
     2    18    19    1
     3    18    11    1
     4    11     1    1
     5     1     2   ar
     6     2     3   ar
     7     3     4   ar
     8     4     5   ar
     9     5     6   ar
    10     6    20    1
    11    20    21    1
    12    21    22    1
    13    21    23    1
    14     6     7   ar
    15     7     8   ar
    16     8     9   ar
    17     9    10   ar
    18    11    12    1
    19    12    13   ar
    20    13    14   ar
    21    14    15   ar
    22    15    16   ar
    23    10     1   ar
    24    16    12   ar
    25     9     4   ar
@<TRIPOS>MOLECULE
*****
 23 25 0 0 0
SMALL
GASTEIGER

@<TRIPOS>ATOM
      1 C          65.2116   91.9996   12.2579 C.ar    1  UNL1        0.0017
      2 C          64.9618   91.0727   13.4104 C.ar    1  UNL1       -0.0023
      3 C          63.8820   90.0357   13.3183 C.ar    1  UNL1       -0.0002
      4 C          63.0519   89.9256   12.0738 C.ar    1  UNL1        0.0030
      5 C          61.9720   88.8886   11.9818 C.ar    1  UNL1        0.0371
      6 C          61.1420   88.7785   10.7372 C.ar    1  UNL1        0.1443
      7 C          61.3918   89.7056    9.5847 C.ar    1  UNL1        0.0371
      8 C          62.4717   90.7426    9.6768 C.ar    1  UNL1        0.0031
      9 C          63.3017   90.8526   10.9213 C.ar    1  UNL1       -0.0001
     10 C          64.3816   91.8896   11.0134 C.ar    1  UNL1       -0.0023
     11 C          66.2915   93.0367   12.3499 C.3     1  UNL1        0.1493
     12 N          67.2016   93.0681   13.5419 N.ar    1  UNL1       -0.1486
     13 N          66.9658   93.8315   14.8114 N.ar    1  UNL1       -0.1261
     14 C          68.1257   93.5768   15.7277 C.ar    1  UNL1        0.2448
     15 N          69.0784   92.6560   15.0246 N.ar    1  UNL1       -0.1044
     16 N          68.5073   92.3416   13.6737 N.ar    1  UNL1       -0.0447
     17 C          67.1073   93.6386    9.9578 C.3     1  UNL1        0.0024
     18 C          66.4613   94.0423   11.2500 C.3     1  UNL1        0.0286
     19 C          65.9851   95.4517   11.4422 C.3     1  UNL1        0.0024
     20 O          60.0621   87.7415   10.6452 O.3     1  UNL1       -0.4236
     21 C          59.9508   86.8812    9.4214 C.3     1  UNL1        0.5087
     22 F          58.7733   87.0304    8.5043 F       1  UNL1       -0.1550
     23 F          61.0170   85.8717    9.1148 F       1  UNL1       -0.1550
@<TRIPOS>BOND
     1    17    18    1
     2    18    19    1
     3    18    11    1
     4    11     1    1
     5     1     2   ar
     6     2     3   ar
     7     3     4   ar
     8     4     5   ar
     9     5     6   ar
    10     6    20    1
    11    20    21    1
    12    21    22    1
    13    21    23    1
    14     6     7   ar
    15     7     8   ar
    16     8     9   ar
    17     9    10   ar
    18    11    12    1
    19    12    13   ar
    20    13    14   ar
    21    14    15   ar
    22    15    16   ar
    23    10     1   ar
    24    16    12   ar
    25     9     4   ar
@<TRIPOS>MOLECULE
*****
 23 25 0 0 0
SMALL
GASTEIGER

@<TRIPOS>ATOM
      1 C          63.7885   89.7390   13.3795 C.ar    1  UNL1        0.0017
      2 C          63.9921   88.2630   13.5519 C.ar    1  UNL1       -0.0023
      3 C          63.3856   87.3028   12.5722 C.ar    1  UNL1       -0.0002
      4 C          62.5753   87.8186   11.4200 C.ar    1  UNL1        0.0030
      5 C          61.9687   86.8582   10.4402 C.ar    1  UNL1        0.0371
      6 C          61.1584   87.3740    9.2881 C.ar    1  UNL1        0.1443
      7 C          60.9548   88.8501    9.1157 C.ar    1  UNL1        0.0371
      8 C          61.5614   89.8104   10.0954 C.ar    1  UNL1        0.0031
      9 C          62.3716   89.2946   11.2476 C.ar    1  UNL1       -0.0001
     10 C          62.9782   90.2548   12.2273 C.ar    1  UNL1       -0.0023
     11 C          64.3951   90.6994   14.3592 C.3     1  UNL1        0.1493
     12 N          65.4891   91.6272   13.9207 N.ar    1  UNL1       -0.1486
     13 N          65.3363   92.7918   12.9877 N.ar    1  UNL1       -0.1261
     14 C          66.6807   93.4377   12.8285 C.ar    1  UNL1        0.2448
     15 N          67.6644   92.6725   13.6632 N.ar    1  UNL1       -0.1044
     16 N          66.9279   91.5535   14.3382 N.ar    1  UNL1       -0.0447
     17 C          64.1894   91.9262   16.6402 C.3     1  UNL1        0.0024
     18 C          63.9078   90.7318   15.7774 C.3     1  UNL1        0.0286
     19 C          63.1387   89.5699   16.3330 C.3     1  UNL1        0.0024
     20 O          60.5518   86.4138    8.3084 O.3     1  UNL1       -0.4236
     21 C          61.4333   85.4972    7.5126 C.3     1  UNL1        0.5087
     22 F          60.8386   84.6181    6.4527 F       1  UNL1       -0.1550
     23 F          62.9093   85.4599    7.7769 F       1  UNL1       -0.1550
@<TRIPOS>BOND
     1    17    18    1
     2    18    19    1
     3    18    11    1
     4    11     1    1
     5     1     2   ar
     6     2     3   ar
     7     3     4   ar
     8     4     5   ar
     9     5     6   ar
    10     6    20    1
    11    20    21    1
    12    21    22    1
    13    21    23    1
    14     6     7   ar
    15     7     8   ar
    16     8     9   ar
    17     9    10   ar
    18    11    12    1
    19    12    13   ar
    20    13    14   ar
    21    14    15   ar
    22    15    16   ar
    23    10     1   ar
    24    16    12   ar
    25     9     4   ar
