@<TRIPOS>MOLECULE
*****
 41 46 0 0 0
SMALL
GASTEIGER

@<TRIPOS>ATOM
      1 C          63.6434   84.7581   12.9878 C.ar    1  UNL1        0.0907
      2 C          62.8800   84.0366   11.9169 C.ar    1  UNL1        0.1496
      3 O          62.1885   85.0628   11.0693 O.2     1  UNL1       -0.4533
      4 C          62.5244   86.4185   11.6162 C.ar    1  UNL1        0.1454
      5 C          62.1277   87.8002   11.1877 C.ar    1  UNL1        0.0375
      6 C          62.6302   88.9935   11.9450 C.ar    1  UNL1        0.0031
      7 C          63.5294   88.8051   13.1307 C.ar    1  UNL1       -0.0001
      8 C          63.9261   87.4235   13.5592 C.ar    1  UNL1        0.0033
      9 C          63.4236   86.2302   12.8019 C.ar    1  UNL1        0.0419
     10 C          62.8189   82.5499   11.7271 C.ar    1  UNL1        0.0349
     11 C          63.1940   81.9464   10.4061 C.ar    1  UNL1        0.0053
     12 C          63.1329   80.4597   10.2163 C.ar    1  UNL1        0.0297
     13 C          62.6968   79.5765   11.3475 C.ar    1  UNL1        0.1401
     14 F          62.6357   78.0898   11.1576 F       1  UNL1       -0.2042
     15 C          62.3217   80.1799   12.6685 C.ar    1  UNL1        0.0297
     16 C          62.3828   81.6666   12.8583 C.ar    1  UNL1        0.0053
     17 C          64.0319   89.9985   13.8880 C.ar    1  UNL1       -0.0038
     18 C          64.8101   91.0652   13.1762 C.ar    1  UNL1        0.0042
     19 C          65.3126   92.2586   13.9335 C.ar    1  UNL1        0.0533
     20 C          65.0369   92.3852   15.4025 C.ar    1  UNL1        0.0042
     21 C          64.2587   91.3184   16.1143 C.ar    1  UNL1       -0.0041
     22 C          63.7563   90.1251   15.3570 C.ar    1  UNL1       -0.0218
     23 C          62.9781   89.0583   16.0687 C.3     1  UNL1        0.0310
     24 C          66.0907   93.3253   13.2218 C.2     1  UNL1        0.2460
     25 O          67.3572   93.8577   13.8238 O.2     1  UNL1       -0.2701
     26 N          65.6023   93.8596   11.9080 N.am    1  UNL1       -0.3006
     27 H          64.7710   93.5102   11.5129 H       1  UNL1        0.1499
     28 C          66.3804   94.9263   11.1963 C.3     1  UNL1        0.0761
     29 C          66.8832   96.2871   10.8148 C.3     1  UNL1        0.0242
     30 C          65.8579   96.1435   11.9002 C.3     1  UNL1        0.0242
     31 C          67.1732   94.0797   10.2451 C.ar    1  UNL1       -0.0063
     32 C          67.5482   92.6774   10.6231 C.ar    1  UNL1       -0.0027
     33 C          68.3410   91.8308    9.6719 C.ar    1  UNL1       -0.0003
     34 C          68.7588   92.3865    8.3428 C.ar    1  UNL1       -0.0000
     35 C          68.3838   93.7887    7.9648 C.ar    1  UNL1       -0.0003
     36 C          67.5910   94.6354    8.9160 C.ar    1  UNL1       -0.0027
     37 C          64.7027   82.4813   16.0610 C.3     1  UNL1        0.1109
     38 N          63.8663   83.1198   14.9920 N.am    1  UNL1       -0.2991
     39 C          64.4797   84.1195   14.0568 C.2     1  UNL1        0.2490
     40 O          65.9294   84.4806   14.1908 O.2     1  UNL1       -0.2700
     41 H          62.9148   82.8828   14.9041 H       1  UNL1        0.1498
@<TRIPOS>BOND
     1    37    38    1
     2    38    39   am
     3    39    40    2
     4    39     1    1
     5     1     2   ar
     6     2    10    1
     7    10    11   ar
     8    11    12   ar
     9    12    13   ar
    10    13    14    1
    11    13    15   ar
    12    15    16   ar
    13     2     3   ar
    14     3     4   ar
    15     4     5   ar
    16     5     6   ar
    17     6     7   ar
    18     7    17    1
    19    17    18   ar
    20    18    19   ar
    21    19    24    1
    22    24    25    2
    23    24    26   am
    24    26    28    1
    25    28    31    1
    26    31    32   ar
    27    32    33   ar
    28    33    34   ar
    29    34    35   ar
    30    35    36   ar
    31    28    29    1
    32    29    30    1
    33    19    20   ar
    34    20    21   ar
    35    21    22   ar
    36    22    23    1
    37     7     8   ar
    38     8     9   ar
    39     9     1   ar
    40    16    10   ar
    41     9     4   ar
    42    22    17   ar
    43    30    28    1
    44    36    31   ar
    45    38    41    1
    46    26    27    1
@<TRIPOS>MOLECULE
*****
 41 46 0 0 0
SMALL
GASTEIGER

@<TRIPOS>ATOM
      1 C          63.4675   84.4270   12.4399 C.ar    1  UNL1        0.0907
      2 C          63.3645   83.0659   13.0617 C.ar    1  UNL1        0.1496
      3 O          63.5723   83.2147   14.5398 O.2     1  UNL1       -0.4533
      4 C          63.8038   84.6677   14.8314 C.ar    1  UNL1        0.1454
      5 C          64.0652   85.4053   16.1111 C.ar    1  UNL1        0.0375
      6 C          64.2619   86.8922   16.0929 C.ar    1  UNL1        0.0031
      7 C          64.1971   87.6415   14.7951 C.ar    1  UNL1       -0.0001
      8 C          63.9357   86.9039   13.5154 C.ar    1  UNL1        0.0033
      9 C          63.7390   85.4170   13.5336 C.ar    1  UNL1        0.0419
     10 C          63.1000   81.7815   12.3334 C.ar    1  UNL1        0.0349
     11 C          62.6034   80.5819   13.0845 C.ar    1  UNL1        0.0053
     12 C          62.3390   79.2975   12.3562 C.ar    1  UNL1        0.0297
     13 C          62.5711   79.2128   10.8767 C.ar    1  UNL1        0.1401
     14 F          62.3066   77.9284   10.1484 F       1  UNL1       -0.2042
     15 C          63.0676   80.4124   10.1256 C.ar    1  UNL1        0.0297
     16 C          63.3321   81.6968   10.8539 C.ar    1  UNL1        0.0053
     17 C          64.3938   89.1285   14.7769 C.ar    1  UNL1       -0.0038
     18 C          65.4018   89.7405   13.8500 C.ar    1  UNL1        0.0042
     19 C          65.5985   91.2275   13.8319 C.ar    1  UNL1        0.0533
     20 C          64.7870   92.1024   14.7407 C.ar    1  UNL1        0.0042
     21 C          63.7789   91.4904   15.6677 C.ar    1  UNL1       -0.0041
     22 C          63.5823   90.0035   15.6858 C.ar    1  UNL1       -0.0218
     23 C          62.5742   89.3914   16.6127 C.3     1  UNL1        0.0310
     24 C          66.6066   91.8394   12.9049 C.2     1  UNL1        0.2460
     25 O          67.9684   92.2069   13.4150 O.2     1  UNL1       -0.2701
     26 N          66.2528   92.0839   11.4679 N.am    1  UNL1       -0.3006
     27 H          65.3589   91.8427   11.1331 H       1  UNL1        0.1499
     28 C          67.2608   92.6959   10.5410 C.3     1  UNL1        0.0761
     29 C          68.4644   92.8268    9.6553 C.3     1  UNL1        0.0242
     30 C          68.1738   91.5231   10.3380 C.3     1  UNL1        0.0242
     31 C          66.6981   94.0812   10.4220 C.ar    1  UNL1       -0.0063
     32 C          66.5738   94.7270    9.0738 C.ar    1  UNL1       -0.0027
     33 C          66.0110   96.1123    8.9549 C.ar    1  UNL1       -0.0003
     34 C          65.5725   96.8518   10.1840 C.ar    1  UNL1       -0.0000
     35 C          65.6968   96.2061   11.5320 C.ar    1  UNL1       -0.0003
     36 C          66.2595   94.8207   11.6511 C.ar    1  UNL1       -0.0027
     37 C          62.1123   86.0050    9.0599 C.3     1  UNL1        0.1109
     38 N          62.2556   85.6892   10.5193 N.am    1  UNL1       -0.2991
     39 C          63.3242   84.7428   10.9805 C.2     1  UNL1        0.2490
     40 O          64.2493   84.1123    9.9823 O.2     1  UNL1       -0.2700
     41 H          61.6484   86.1031   11.1745 H       1  UNL1        0.1498
@<TRIPOS>BOND
     1    37    38    1
     2    38    39   am
     3    39    40    2
     4    39     1    1
     5     1     2   ar
     6     2    10    1
     7    10    11   ar
     8    11    12   ar
     9    12    13   ar
    10    13    14    1
    11    13    15   ar
    12    15    16   ar
    13     2     3   ar
    14     3     4   ar
    15     4     5   ar
    16     5     6   ar
    17     6     7   ar
    18     7    17    1
    19    17    18   ar
    20    18    19   ar
    21    19    24    1
    22    24    25    2
    23    24    26   am
    24    26    28    1
    25    28    31    1
    26    31    32   ar
    27    32    33   ar
    28    33    34   ar
    29    34    35   ar
    30    35    36   ar
    31    28    29    1
    32    29    30    1
    33    19    20   ar
    34    20    21   ar
    35    21    22   ar
    36    22    23    1
    37     7     8   ar
    38     8     9   ar
    39     9     1   ar
    40    16    10   ar
    41     9     4   ar
    42    22    17   ar
    43    30    28    1
    44    36    31   ar
    45    38    41    1
    46    26    27    1
@<TRIPOS>MOLECULE
*****
 41 46 0 0 0
SMALL
GASTEIGER

@<TRIPOS>ATOM
      1 C          64.6104   91.4179   12.0655 C.ar    1  UNL1        0.0907
      2 C          64.8327   91.5486   13.5431 C.ar    1  UNL1        0.1496
      3 O          63.7734   90.7503   14.2435 O.2     1  UNL1       -0.4533
      4 C          62.8965   90.1262   13.1988 C.ar    1  UNL1        0.1454
      5 C          61.6938   89.2355   13.2993 C.ar    1  UNL1        0.0375
      6 C          61.0084   88.7574   12.0537 C.ar    1  UNL1        0.0031
      7 C          61.5257   89.1700   10.7075 C.ar    1  UNL1       -0.0001
      8 C          62.7284   90.0607   10.6070 C.ar    1  UNL1        0.0033
      9 C          63.4138   90.5388   11.8526 C.ar    1  UNL1        0.0419
     10 C          65.9228   92.3389   14.2043 C.ar    1  UNL1        0.0349
     11 C          66.2415   93.7240   13.7248 C.ar    1  UNL1        0.0053
     12 C          67.3316   94.5143   14.3860 C.ar    1  UNL1        0.0297
     13 C          68.1030   93.9194   15.5265 C.ar    1  UNL1        0.1401
     14 F          69.1932   94.7097   16.1877 F       1  UNL1       -0.2042
     15 C          67.7844   92.5344   16.0060 C.ar    1  UNL1        0.0297
     16 C          66.6943   91.7441   15.3449 C.ar    1  UNL1        0.0053
     17 C          60.8403   88.6919    9.4619 C.ar    1  UNL1       -0.0038
     18 C          60.4280   89.6762    8.4078 C.ar    1  UNL1        0.0042
     19 C          59.7425   89.1981    7.1621 C.ar    1  UNL1        0.0533
     20 C          59.4694   87.7356    6.9706 C.ar    1  UNL1        0.0042
     21 C          59.8817   86.7513    8.0247 C.ar    1  UNL1       -0.0041
     22 C          60.5672   87.2295    9.2703 C.ar    1  UNL1       -0.0218
     23 C          60.9795   86.2452   10.3245 C.3     1  UNL1        0.0310
     24 C          59.3302   90.1824    6.1080 C.2     1  UNL1        0.2460
     25 O          57.8752   90.4174    5.8294 O.2     1  UNL1       -0.2701
     26 N          60.3729   90.9317    5.3326 N.am    1  UNL1       -0.3006
     27 H          61.3279   90.7774    5.5155 H       1  UNL1        0.1499
     28 C          59.9606   91.9160    4.2785 C.3     1  UNL1        0.0761
     29 C          59.1043   92.8661    3.4949 C.3     1  UNL1        0.0242
     30 C          58.5391   92.1593    4.6912 C.3     1  UNL1        0.0242
     31 C          61.2388   92.0145    3.4998 C.ar    1  UNL1       -0.0063
     32 C          61.3783   93.0398    2.4139 C.ar    1  UNL1       -0.0027
     33 C          62.6566   93.1383    1.6352 C.ar    1  UNL1       -0.0003
     34 C          63.7953   92.2116    1.9425 C.ar    1  UNL1       -0.0000
     35 C          63.6558   91.1863    3.0283 C.ar    1  UNL1       -0.0003
     36 C          62.3775   91.0878    3.8071 C.ar    1  UNL1       -0.0027
     37 C          67.7432   92.4264    9.8475 C.3     1  UNL1        0.1109
     38 N          66.9143   91.7898   10.9235 N.am    1  UNL1       -0.2991
     39 C          65.4393   92.0545   10.9895 C.2     1  UNL1        0.2490
     40 O          64.7932   92.9559    9.9795 O.2     1  UNL1       -0.2700
     41 H          67.3384   91.1982   11.5863 H       1  UNL1        0.1498
@<TRIPOS>BOND
     1    37    38    1
     2    38    39   am
     3    39    40    2
     4    39     1    1
     5     1     2   ar
     6     2    10    1
     7    10    11   ar
     8    11    12   ar
     9    12    13   ar
    10    13    14    1
    11    13    15   ar
    12    15    16   ar
    13     2     3   ar
    14     3     4   ar
    15     4     5   ar
    16     5     6   ar
    17     6     7   ar
    18     7    17    1
    19    17    18   ar
    20    18    19   ar
    21    19    24    1
    22    24    25    2
    23    24    26   am
    24    26    28    1
    25    28    31    1
    26    31    32   ar
    27    32    33   ar
    28    33    34   ar
    29    34    35   ar
    30    35    36   ar
    31    28    29    1
    32    29    30    1
    33    19    20   ar
    34    20    21   ar
    35    21    22   ar
    36    22    23    1
    37     7     8   ar
    38     8     9   ar
    39     9     1   ar
    40    16    10   ar
    41     9     4   ar
    42    22    17   ar
    43    30    28    1
    44    36    31   ar
    45    38    41    1
    46    26    27    1
@<TRIPOS>MOLECULE
*****
 41 46 0 0 0
SMALL
GASTEIGER

@<TRIPOS>ATOM
      1 C          60.4565   87.9238    8.8548 C.ar    1  UNL1        0.0907
      2 C          60.1792   88.0026    7.3828 C.ar    1  UNL1        0.1496
      3 O          60.8261   86.8197    6.7253 O.2     1  UNL1       -0.4533
      4 C          61.5032   86.0098    7.7910 C.ar    1  UNL1        0.1454
      5 C          62.2982   84.7392    7.7329 C.ar    1  UNL1        0.0375
      6 C          62.8648   84.1509    8.9910 C.ar    1  UNL1        0.0031
      7 C          62.6364   84.8333   10.3072 C.ar    1  UNL1       -0.0001
      8 C          61.8414   86.1039   10.3652 C.ar    1  UNL1        0.0033
      9 C          61.2748   86.6922    9.1071 C.ar    1  UNL1        0.0419
     10 C          59.3931   89.0759    6.6899 C.ar    1  UNL1        0.0349
     11 C          60.1062   90.1728    5.9563 C.ar    1  UNL1        0.0053
     12 C          59.3201   91.2461    5.2634 C.ar    1  UNL1        0.0297
     13 C          57.8208   91.2224    5.3041 C.ar    1  UNL1        0.1401
     14 F          57.0347   92.2957    4.6112 F       1  UNL1       -0.2042
     15 C          57.1077   90.1255    6.0377 C.ar    1  UNL1        0.0297
     16 C          57.8939   89.0522    6.7306 C.ar    1  UNL1        0.0053
     17 C          63.2030   84.2450   11.5653 C.ar    1  UNL1       -0.0038
     18 C          63.2793   85.0742   12.8129 C.ar    1  UNL1        0.0042
     19 C          63.8460   84.4859   14.0710 C.ar    1  UNL1        0.0533
     20 C          64.3363   83.0683   14.0815 C.ar    1  UNL1        0.0042
     21 C          64.2599   82.2391   12.8338 C.ar    1  UNL1       -0.0041
     22 C          63.6933   82.8274   11.5758 C.ar    1  UNL1       -0.0218
     23 C          63.6170   81.9982   10.3281 C.3     1  UNL1        0.0310
     24 C          63.9223   85.3151   15.3186 C.2     1  UNL1        0.2460
     25 O          64.9929   85.0455   16.3340 O.2     1  UNL1       -0.2701
     26 N          62.9279   86.4139   15.5509 N.am    1  UNL1       -0.3006
     27 H          62.2252   86.5908   14.8844 H       1  UNL1        0.1499
     28 C          63.0042   87.2431   16.7984 C.3     1  UNL1        0.0761
     29 C          62.9086   87.6232   18.2463 C.3     1  UNL1        0.0242
     30 C          62.5355   86.2379   17.8084 C.3     1  UNL1        0.0242
     31 C          63.4995   88.5362   16.2219 C.ar    1  UNL1       -0.0063
     32 C          63.2488   89.8254   16.9466 C.ar    1  UNL1       -0.0027
     33 C          63.7440   91.1185   16.3700 C.ar    1  UNL1       -0.0003
     34 C          64.4900   91.1225   15.0686 C.ar    1  UNL1       -0.0000
     35 C          64.7406   89.8335   14.3439 C.ar    1  UNL1       -0.0003
     36 C          64.2454   88.5403   14.9205 C.ar    1  UNL1       -0.0027
     37 C          59.0333   89.3941   12.2553 C.3     1  UNL1        0.1109
     38 N          59.4935   88.4135   11.2176 N.am    1  UNL1       -0.2991
     39 C          59.9964   88.9044    9.8924 C.2     1  UNL1        0.2490
     40 O          60.0391   90.3759    9.6049 O.2     1  UNL1       -0.2700
     41 H          59.4654   87.4476   11.4064 H       1  UNL1        0.1498
@<TRIPOS>BOND
     1    37    38    1
     2    38    39   am
     3    39    40    2
     4    39     1    1
     5     1     2   ar
     6     2    10    1
     7    10    11   ar
     8    11    12   ar
     9    12    13   ar
    10    13    14    1
    11    13    15   ar
    12    15    16   ar
    13     2     3   ar
    14     3     4   ar
    15     4     5   ar
    16     5     6   ar
    17     6     7   ar
    18     7    17    1
    19    17    18   ar
    20    18    19   ar
    21    19    24    1
    22    24    25    2
    23    24    26   am
    24    26    28    1
    25    28    31    1
    26    31    32   ar
    27    32    33   ar
    28    33    34   ar
    29    34    35   ar
    30    35    36   ar
    31    28    29    1
    32    29    30    1
    33    19    20   ar
    34    20    21   ar
    35    21    22   ar
    36    22    23    1
    37     7     8   ar
    38     8     9   ar
    39     9     1   ar
    40    16    10   ar
    41     9     4   ar
    42    22    17   ar
    43    30    28    1
    44    36    31   ar
    45    38    41    1
    46    26    27    1
@<TRIPOS>MOLECULE
*****
 41 46 0 0 0
SMALL
GASTEIGER

@<TRIPOS>ATOM
      1 C          63.2477   84.6490   12.1177 C.ar    1  UNL1        0.0907
      2 C          63.5520   83.2736   12.6330 C.ar    1  UNL1        0.1496
      3 O          64.1960   83.4155   13.9803 O.2     1  UNL1       -0.4533
      4 C          64.2897   84.8786   14.2976 C.ar    1  UNL1        0.1454
      5 C          64.8330   85.6151   15.4860 C.ar    1  UNL1        0.0375
      6 C          64.7901   87.1140   15.5232 C.ar    1  UNL1        0.0031
      7 C          64.2040   87.8764   14.3720 C.ar    1  UNL1       -0.0001
      8 C          63.6607   87.1398   13.1836 C.ar    1  UNL1        0.0033
      9 C          63.7036   85.6410   13.1464 C.ar    1  UNL1        0.0419
     10 C          63.2631   81.9830   11.9254 C.ar    1  UNL1        0.0349
     11 C          63.5363   81.8558   10.4560 C.ar    1  UNL1        0.0053
     12 C          63.2473   80.5651    9.7484 C.ar    1  UNL1        0.0297
     13 C          62.6852   79.4017   10.5102 C.ar    1  UNL1        0.1401
     14 F          62.3962   78.1110    9.8025 F       1  UNL1       -0.2042
     15 C          62.4120   79.5289   11.9796 C.ar    1  UNL1        0.0297
     16 C          62.7009   80.8195   12.6872 C.ar    1  UNL1        0.0053
     17 C          64.1612   89.3753   14.4092 C.ar    1  UNL1       -0.0038
     18 C          64.5425   90.1670   13.1936 C.ar    1  UNL1        0.0042
     19 C          64.4997   91.6660   13.2308 C.ar    1  UNL1        0.0533
     20 C          64.0755   92.3732   14.4838 C.ar    1  UNL1        0.0042
     21 C          63.6942   91.5815   15.6995 C.ar    1  UNL1       -0.0041
     22 C          63.7371   90.0826   15.6622 C.ar    1  UNL1       -0.0218
     23 C          63.3557   89.2909   16.8779 C.3     1  UNL1        0.0310
     24 C          64.8810   92.4576   12.0152 C.2     1  UNL1        0.2460
     25 O          64.4827   91.9763   10.6515 O.2     1  UNL1       -0.2701
     26 N          65.6605   93.7305   12.1632 N.am    1  UNL1       -0.3006
     27 H          65.9219   94.0464   13.0583 H       1  UNL1        0.1499
     28 C          66.0418   94.5222   10.9475 C.3     1  UNL1        0.0761
     29 C          66.0707   95.6348    9.9419 C.3     1  UNL1        0.0242
     30 C          65.1593   95.7213   11.1303 C.3     1  UNL1        0.0242
     31 C          67.0566   93.5980   10.3426 C.ar    1  UNL1       -0.0063
     32 C          67.6339   92.4800   11.1593 C.ar    1  UNL1       -0.0027
     33 C          68.6488   91.5559   10.5543 C.ar    1  UNL1       -0.0003
     34 C          69.0864   91.7497    9.1327 C.ar    1  UNL1       -0.0000
     35 C          68.5092   92.8676    8.3161 C.ar    1  UNL1       -0.0003
     36 C          67.4943   93.7918    8.9211 C.ar    1  UNL1       -0.0027
     37 C          62.7002   85.0715    8.2097 C.3     1  UNL1        0.1109
     38 N          63.3469   84.7452    9.5232 N.am    1  UNL1       -0.2991
     39 C          62.6009   84.9753   10.8042 C.2     1  UNL1        0.2490
     40 O          61.2084   85.5316   10.7714 O.2     1  UNL1       -0.2700
     41 H          64.2609   84.3801    9.5446 H       1  UNL1        0.1498
@<TRIPOS>BOND
     1    37    38    1
     2    38    39   am
     3    39    40    2
     4    39     1    1
     5     1     2   ar
     6     2    10    1
     7    10    11   ar
     8    11    12   ar
     9    12    13   ar
    10    13    14    1
    11    13    15   ar
    12    15    16   ar
    13     2     3   ar
    14     3     4   ar
    15     4     5   ar
    16     5     6   ar
    17     6     7   ar
    18     7    17    1
    19    17    18   ar
    20    18    19   ar
    21    19    24    1
    22    24    25    2
    23    24    26   am
    24    26    28    1
    25    28    31    1
    26    31    32   ar
    27    32    33   ar
    28    33    34   ar
    29    34    35   ar
    30    35    36   ar
    31    28    29    1
    32    29    30    1
    33    19    20   ar
    34    20    21   ar
    35    21    22   ar
    36    22    23    1
    37     7     8   ar
    38     8     9   ar
    39     9     1   ar
    40    16    10   ar
    41     9     4   ar
    42    22    17   ar
    43    30    28    1
    44    36    31   ar
    45    38    41    1
    46    26    27    1
@<TRIPOS>MOLECULE
*****
 41 46 0 0 0
SMALL
GASTEIGER

@<TRIPOS>ATOM
      1 C          61.6893   88.5764   10.2532 C.ar    1  UNL1        0.0907
      2 C          61.8996   87.1925   10.7921 C.ar    1  UNL1        0.1496
      3 O          61.1866   86.2302    9.8890 O.2     1  UNL1       -0.4533
      4 C          60.5356   87.0194    8.7920 C.ar    1  UNL1        0.1454
      5 C          59.7002   86.6049    7.6172 C.ar    1  UNL1        0.0375
      6 C          59.1754   87.6406    6.6675 C.ar    1  UNL1        0.0031
      7 C          59.4861   89.0907    6.8926 C.ar    1  UNL1       -0.0001
      8 C          60.3216   89.5051    8.0673 C.ar    1  UNL1        0.0033
      9 C          60.8463   88.4695    9.0170 C.ar    1  UNL1        0.0419
     10 C          62.6850   86.8338   12.0187 C.ar    1  UNL1        0.0349
     11 C          62.7851   85.4016   12.4530 C.ar    1  UNL1        0.0053
     12 C          63.5705   85.0430   13.6796 C.ar    1  UNL1        0.0297
     13 C          64.2558   86.1165   14.4719 C.ar    1  UNL1        0.1401
     14 F          65.0411   85.7579   15.6985 F       1  UNL1       -0.2042
     15 C          64.1557   87.5488   14.0376 C.ar    1  UNL1        0.0297
     16 C          63.3703   87.9074   12.8110 C.ar    1  UNL1        0.0053
     17 C          58.9612   90.1263    5.9428 C.ar    1  UNL1       -0.0038
     18 C          59.9135   90.9255    5.1035 C.ar    1  UNL1        0.0042
     19 C          59.3886   91.9612    4.1537 C.ar    1  UNL1        0.0533
     20 C          57.9115   92.1976    4.0433 C.ar    1  UNL1        0.0042
     21 C          56.9592   91.3984    4.8827 C.ar    1  UNL1       -0.0041
     22 C          57.4841   90.3628    5.8324 C.ar    1  UNL1       -0.0218
     23 C          56.5318   89.5635    6.6717 C.3     1  UNL1        0.0310
     24 C          60.3409   92.7604    3.3144 C.2     1  UNL1        0.2460
     25 O          60.2216   94.2546    3.2616 O.2     1  UNL1       -0.2701
     26 N          61.4125   92.0653    2.5280 N.am    1  UNL1       -0.3006
     27 H          61.4908   91.0845    2.5627 H       1  UNL1        0.1499
     28 C          62.3648   92.8645    1.6887 C.3     1  UNL1        0.0761
     29 C          63.6263   93.5488    1.2526 C.3     1  UNL1        0.0242
     30 C          63.5860   92.8113    2.5582 C.3     1  UNL1        0.0242
     31 C          61.4744   93.1952    0.5278 C.ar    1  UNL1       -0.0063
     32 C          60.5478   92.1542   -0.0271 C.ar    1  UNL1       -0.0027
     33 C          59.6574   92.4851   -1.1880 C.ar    1  UNL1       -0.0003
     34 C          59.6936   93.8567   -1.7941 C.ar    1  UNL1       -0.0000
     35 C          60.6201   94.8975   -1.2392 C.ar    1  UNL1       -0.0003
     36 C          61.5106   94.5668   -0.0782 C.ar    1  UNL1       -0.0027
     37 C          63.9774   91.7653   10.8420 C.3     1  UNL1        0.1109
     38 N          63.4392   90.4969   10.2490 N.am    1  UNL1       -0.2991
     39 C          62.2275   89.8448   10.8462 C.2     1  UNL1        0.2490
     40 O          61.5541   90.4610   12.0365 O.2     1  UNL1       -0.2700
     41 H          63.8812   90.0925    9.4677 H       1  UNL1        0.1498
@<TRIPOS>BOND
     1    37    38    1
     2    38    39   am
     3    39    40    2
     4    39     1    1
     5     1     2   ar
     6     2    10    1
     7    10    11   ar
     8    11    12   ar
     9    12    13   ar
    10    13    14    1
    11    13    15   ar
    12    15    16   ar
    13     2     3   ar
    14     3     4   ar
    15     4     5   ar
    16     5     6   ar
    17     6     7   ar
    18     7    17    1
    19    17    18   ar
    20    18    19   ar
    21    19    24    1
    22    24    25    2
    23    24    26   am
    24    26    28    1
    25    28    31    1
    26    31    32   ar
    27    32    33   ar
    28    33    34   ar
    29    34    35   ar
    30    35    36   ar
    31    28    29    1
    32    29    30    1
    33    19    20   ar
    34    20    21   ar
    35    21    22   ar
    36    22    23    1
    37     7     8   ar
    38     8     9   ar
    39     9     1   ar
    40    16    10   ar
    41     9     4   ar
    42    22    17   ar
    43    30    28    1
    44    36    31   ar
    45    38    41    1
    46    26    27    1
