@<TRIPOS>MOLECULE
*****
 34 38 0 0 0
SMALL
GASTEIGER

@<TRIPOS>ATOM
      1 C          63.5777   88.3062   15.5601 C.3     1  UNL1        0.2246
      2 C          63.7486   86.8310   15.3491 C.2     1  UNL1        0.0435
      3 C          63.4802   85.8764   16.4746 C.2     1  UNL1        0.0288
      4 C          63.0408   86.3969   17.8110 C.2     1  UNL1        0.0896
      5 N          62.8699   87.8721   18.0220 N.am    1  UNL1       -0.1770
      6 C          63.1383   88.8268   16.8965 C.2     1  UNL1        0.2627
      7 O          62.9673   90.3020   17.1075 O.2     1  UNL1       -0.2719
      8 C          62.2516   90.3303   10.1537 C.3     1  UNL1        0.0312
      9 C          63.3715   90.9435   10.9409 C.2     1  UNL1        0.0136
     10 C          64.1639   92.0769   10.3599 C.2     1  UNL1        0.0107
     11 C          65.2838   92.6901   11.1471 C.2     1  UNL1        0.0510
     12 C          65.6114   92.1699   12.5155 C.2     1  UNL1        0.0613
     13 C          64.8190   91.0366   13.0965 C.2     1  UNL1        0.2246
     14 N          64.9098   90.3181   14.4101 N.2     1  UNL1       -0.0378
     15 C          63.8461   89.2609   14.4347 C.2     1  UNL1        0.3605
     16 N          63.0977   89.3259   13.1363 N.2     1  UNL1       -0.0547
     17 C          63.6991   90.4233   12.3092 C.3     1  UNL1        0.2976
     18 N          66.0762   93.8235   10.5661 N.pl3   1  UNL1       -0.3027
     19 C          65.7940   95.2330   10.9945 C.3     1  UNL1        0.1231
     20 C          66.5864   96.3664   10.4135 C.3     1  UNL1        0.1636
     21 O          67.6609   96.0903    9.4041 O.3     1  UNL1       -0.3501
     22 C          67.9431   94.6807    8.9756 C.3     1  UNL1        0.1636
     23 C          67.1507   93.5473    9.5566 C.3     1  UNL1        0.1231
     24 N          64.1880   86.3104   14.0128 N.pl3   1  UNL1       -0.3348
     25 H          64.4367   86.9391   13.2971 H       1  UNL1        0.1466
     26 C          64.2485   84.8320   13.7667 C.3     1  UNL1        0.0933
     27 C          63.2163   84.1730   12.9006 C.3     1  UNL1        0.0694
     28 C          62.5692   84.9425   11.7874 C.ar    1  UNL1        0.0890
     29 N          61.5726   86.0523   11.9459 N.ar    1  UNL1       -0.2274
     30 C          61.1926   86.5330   10.5767 C.ar    1  UNL1        0.1789
     31 N          61.9543   85.7203    9.5721 N.ar    1  UNL1       -0.2986
     32 C          61.8787   85.8651    8.0811 C.3     1  UNL1        0.1329
     33 C          62.8052   84.7373   10.3204 C.ar    1  UNL1        0.1338
     34 CL         63.7296   83.7266    9.7089 Cl      1  UNL1       -0.0619
@<TRIPOS>BOND
     1     8     9    1
     2     9    10    2
     3    10    11    1
     4    11    18    1
     5    18    19    1
     6    19    20    1
     7    20    21    1
     8    21    22    1
     9    22    23    1
    10    11    12    2
    11    12    13    1
    12    13    14    2
    13    14    15    1
    14    15     1    1
    15     1     2    1
    16     2    24    1
    17    24    26    1
    18    26    27    1
    19    27    28    1
    20    28    29   ar
    21    29    30   ar
    22    30    31   ar
    23    31    32    1
    24    31    33   ar
    25    33    34    1
    26     2     3    2
    27     3     4    1
    28     4     5    2
    29     5     6    1
    30     6     7    2
    31    15    16    2
    32    16    17    1
    33    17     9    1
    34    23    18    1
    35    17    13    1
    36     6     1    1
    37    33    28   ar
    38    24    25    1
@<TRIPOS>MOLECULE
*****
 34 38 0 0 0
SMALL
GASTEIGER

@<TRIPOS>ATOM
      1 C          63.6050   88.3640   15.5092 C.3     1  UNL1        0.2246
      2 C          63.7756   86.8897   15.2916 C.2     1  UNL1        0.0435
      3 C          63.5118   85.9305   16.4142 C.2     1  UNL1        0.0288
      4 C          63.0775   86.4455   17.7544 C.2     1  UNL1        0.0896
      5 N          62.9069   87.9197   17.9720 N.am    1  UNL1       -0.1770
      6 C          63.1707   88.8790   16.8494 C.2     1  UNL1        0.2627
      7 O          63.0001   90.3533   17.0670 O.2     1  UNL1       -0.2719
      8 C          62.2602   90.4068   10.1145 C.3     1  UNL1        0.0312
      9 C          63.3816   91.0185   10.9007 C.2     1  UNL1        0.0136
     10 C          64.1708   92.1551   10.3217 C.2     1  UNL1        0.0107
     11 C          65.2922   92.7668   11.1078 C.2     1  UNL1        0.0510
     12 C          65.6245   92.2419   12.4732 C.2     1  UNL1        0.0613
     13 C          64.8354   91.1053   13.0522 C.2     1  UNL1        0.2246
     14 N          64.9311   90.3820   14.3628 N.2     1  UNL1       -0.0378
     15 C          63.8688   89.3233   14.3866 C.2     1  UNL1        0.3605
     16 N          63.1165   89.3922   13.0907 N.2     1  UNL1       -0.0547
     17 C          63.7139   90.4936   12.2660 C.3     1  UNL1        0.2976
     18 N          66.0813   93.9035   10.5287 N.pl3   1  UNL1       -0.3027
     19 C          67.1475   93.6334    9.5088 C.3     1  UNL1        0.1231
     20 C          67.9367   94.7700    8.9297 C.3     1  UNL1        0.1636
     21 O          67.6596   96.1767    9.3706 O.3     1  UNL1       -0.3501
     22 C          66.5934   96.4468   10.3905 C.3     1  UNL1        0.1636
     23 C          65.8043   95.3102   10.9696 C.3     1  UNL1        0.1231
     24 N          64.2100   86.3746   13.9515 N.pl3   1  UNL1       -0.3348
     25 H          64.8808   86.8695   13.4277 H       1  UNL1        0.1466
     26 C          63.6223   85.1056   13.4092 C.3     1  UNL1        0.0933
     27 C          64.3589   83.8090   13.5708 C.3     1  UNL1        0.0694
     28 C          63.7771   82.5419   13.0177 C.ar    1  UNL1        0.0890
     29 N          63.1029   81.4617   13.8105 N.ar    1  UNL1       -0.2274
     30 C          62.6764   80.3847   12.8574 C.ar    1  UNL1        0.1789
     31 N          63.0870   80.7993   11.4756 N.ar    1  UNL1       -0.2986
     32 C          62.8577   80.0179   10.2159 C.3     1  UNL1        0.1329
     33 C          63.7673   82.1325   11.5746 C.ar    1  UNL1        0.1338
     34 CL         64.3377   82.9184   10.4314 Cl      1  UNL1       -0.0619
@<TRIPOS>BOND
     1     8     9    1
     2     9    10    2
     3    10    11    1
     4    11    18    1
     5    18    19    1
     6    19    20    1
     7    20    21    1
     8    21    22    1
     9    22    23    1
    10    11    12    2
    11    12    13    1
    12    13    14    2
    13    14    15    1
    14    15     1    1
    15     1     2    1
    16     2    24    1
    17    24    26    1
    18    26    27    1
    19    27    28    1
    20    28    29   ar
    21    29    30   ar
    22    30    31   ar
    23    31    32    1
    24    31    33   ar
    25    33    34    1
    26     2     3    2
    27     3     4    1
    28     4     5    2
    29     5     6    1
    30     6     7    2
    31    15    16    2
    32    16    17    1
    33    17     9    1
    34    23    18    1
    35    17    13    1
    36     6     1    1
    37    33    28   ar
    38    24    25    1
@<TRIPOS>MOLECULE
*****
 34 38 0 0 0
SMALL
GASTEIGER

@<TRIPOS>ATOM
      1 C          61.0781   87.9849    9.6563 C.3     1  UNL1        0.2246
      2 C          61.1516   86.5413    9.2555 C.2     1  UNL1        0.0435
      3 C          60.2242   86.0066    8.2048 C.2     1  UNL1        0.0288
      4 C          59.2234   86.9154    7.5548 C.2     1  UNL1        0.0896
      5 N          59.1500   88.3590    7.9555 N.am    1  UNL1       -0.1770
      6 C          60.0774   88.8937    9.0063 C.2     1  UNL1        0.2627
      7 O          60.0040   90.3373    9.4071 O.2     1  UNL1       -0.2719
      8 C          64.0421   87.2099   14.7257 C.3     1  UNL1        0.0312
      9 C          64.1388   88.5078   13.9799 C.2     1  UNL1        0.0136
     10 C          64.9903   89.6198   14.5169 C.2     1  UNL1        0.0107
     11 C          65.0870   90.9175   13.7711 C.2     1  UNL1        0.0510
     12 C          64.3323   91.1034   12.4881 C.2     1  UNL1        0.0613
     13 C          63.4808   89.9914   11.9511 C.2     1  UNL1        0.2246
     14 N          62.6288   89.8839   10.7213 N.2     1  UNL1       -0.0378
     15 C          62.0055   88.5196   10.7071 C.2     1  UNL1        0.3605
     16 N          62.4723   87.7839   11.9281 N.2     1  UNL1       -0.0547
     17 C          63.3841   88.6936   12.6970 C.3     1  UNL1        0.2976
     18 N          65.9385   92.0296   14.3082 N.pl3   1  UNL1       -0.3027
     19 C          66.6278   91.8745   15.6314 C.3     1  UNL1        0.1231
     20 C          67.4793   92.9865   16.1684 C.3     1  UNL1        0.1636
     21 O          67.6414   94.2536   15.3823 O.3     1  UNL1       -0.3501
     22 C          66.9521   94.4088   14.0592 C.3     1  UNL1        0.1636
     23 C          66.1006   93.2968   13.5221 C.3     1  UNL1        0.1231
     24 N          62.1523   85.6324    9.9055 N.pl3   1  UNL1       -0.3348
     25 H          62.1645   85.5339   10.8850 H       1  UNL1        0.1466
     26 C          63.1343   84.8735    9.0631 C.3     1  UNL1        0.0933
     27 C          63.8924   83.7201    9.6505 C.3     1  UNL1        0.0694
     28 C          63.4880   83.1562   10.9804 C.ar    1  UNL1        0.0890
     29 N          63.3720   83.9226   12.2645 N.ar    1  UNL1       -0.2274
     30 C          62.9409   82.9670   13.3374 C.ar    1  UNL1        0.1789
     31 N          62.7904   81.6100   12.7163 N.ar    1  UNL1       -0.2986
     32 C          62.3748   80.3562   13.4269 C.3     1  UNL1        0.1329
     33 C          63.1285   81.7269   11.2595 C.ar    1  UNL1        0.1338
     34 CL         63.1104   80.6106   10.2578 Cl      1  UNL1       -0.0619
@<TRIPOS>BOND
     1     8     9    1
     2     9    10    2
     3    10    11    1
     4    11    18    1
     5    18    19    1
     6    19    20    1
     7    20    21    1
     8    21    22    1
     9    22    23    1
    10    11    12    2
    11    12    13    1
    12    13    14    2
    13    14    15    1
    14    15     1    1
    15     1     2    1
    16     2    24    1
    17    24    26    1
    18    26    27    1
    19    27    28    1
    20    28    29   ar
    21    29    30   ar
    22    30    31   ar
    23    31    32    1
    24    31    33   ar
    25    33    34    1
    26     2     3    2
    27     3     4    1
    28     4     5    2
    29     5     6    1
    30     6     7    2
    31    15    16    2
    32    16    17    1
    33    17     9    1
    34    23    18    1
    35    17    13    1
    36     6     1    1
    37    33    28   ar
    38    24    25    1
@<TRIPOS>MOLECULE
*****
 34 38 0 0 0
SMALL
GASTEIGER

@<TRIPOS>ATOM
      1 C          64.8427   91.0166   14.7292 C.3     1  UNL1        0.2246
      2 C          66.0235   91.7930   14.2262 C.2     1  UNL1        0.0435
      3 C          66.6517   92.8462   15.0902 C.2     1  UNL1        0.0288
      4 C          66.0992   93.1229   16.4570 C.2     1  UNL1        0.0896
      5 N          64.9184   92.3465   16.9599 N.am    1  UNL1       -0.1770
      6 C          64.2902   91.2933   16.0960 C.2     1  UNL1        0.2627
      7 O          63.1095   90.5169   16.5989 O.2     1  UNL1       -0.2719
      8 C          63.6498   85.3092   13.6864 C.3     1  UNL1        0.0312
      9 C          63.1767   86.3700   12.7372 C.2     1  UNL1        0.0136
     10 C          62.3961   85.9884   11.5145 C.2     1  UNL1        0.0107
     11 C          61.9231   87.0491   10.5653 C.2     1  UNL1        0.0510
     12 C          62.2306   88.4916   10.8388 C.2     1  UNL1        0.0613
     13 C          63.0112   88.8732   12.0615 C.2     1  UNL1        0.2246
     14 N          63.4625   90.2026   12.5897 N.2     1  UNL1       -0.0378
     15 C          64.2145   89.9635   13.8653 C.2     1  UNL1        0.3605
     16 N          64.2279   88.4863   14.1256 N.2     1  UNL1       -0.0547
     17 C          63.4843   87.8124   13.0107 C.3     1  UNL1        0.2976
     18 N          61.1425   86.6674    9.3426 N.pl3   1  UNL1       -0.3027
     19 C          59.7542   87.1991    9.1428 C.3     1  UNL1        0.1231
     20 C          58.9736   86.8175    7.9201 C.3     1  UNL1        0.1636
     21 O          59.5812   85.9041    6.8972 O.3     1  UNL1       -0.3501
     22 C          60.9695   85.3723    7.0970 C.3     1  UNL1        0.1636
     23 C          61.7501   85.7540    8.3197 C.3     1  UNL1        0.1231
     24 N          66.5760   91.5164   12.8595 N.pl3   1  UNL1       -0.3348
     25 H          66.7816   90.5922   12.5894 H       1  UNL1        0.1466
     26 C          66.8155   92.6477   11.9041 C.3     1  UNL1        0.0933
     27 C          65.6539   93.3383   11.2532 C.3     1  UNL1        0.0694
     28 C          65.8747   94.5939   10.4629 C.ar    1  UNL1        0.0890
     29 N          65.0823   95.8618   10.5826 N.ar    1  UNL1       -0.2274
     30 C          65.6447   96.8536    9.6077 C.ar    1  UNL1        0.1789
     31 N          66.7845   96.1987    8.8856 N.ar    1  UNL1       -0.2986
     32 C          67.6333   96.8294    7.8218 C.3     1  UNL1        0.1329
     33 C          66.9268   94.8020    9.4141 C.ar    1  UNL1        0.1338
     34 CL         67.9427   93.7910    8.9715 Cl      1  UNL1       -0.0619
@<TRIPOS>BOND
     1     8     9    1
     2     9    10    2
     3    10    11    1
     4    11    18    1
     5    18    19    1
     6    19    20    1
     7    20    21    1
     8    21    22    1
     9    22    23    1
    10    11    12    2
    11    12    13    1
    12    13    14    2
    13    14    15    1
    14    15     1    1
    15     1     2    1
    16     2    24    1
    17    24    26    1
    18    26    27    1
    19    27    28    1
    20    28    29   ar
    21    29    30   ar
    22    30    31   ar
    23    31    32    1
    24    31    33   ar
    25    33    34    1
    26     2     3    2
    27     3     4    1
    28     4     5    2
    29     5     6    1
    30     6     7    2
    31    15    16    2
    32    16    17    1
    33    17     9    1
    34    23    18    1
    35    17    13    1
    36     6     1    1
    37    33    28   ar
    38    24    25    1
@<TRIPOS>MOLECULE
*****
 34 38 0 0 0
SMALL
GASTEIGER

@<TRIPOS>ATOM
      1 C          64.4737   90.5662   14.8952 C.3     1  UNL1        0.2246
      2 C          65.5081   91.4868   14.3186 C.2     1  UNL1        0.0435
      3 C          65.9232   92.7150   15.0731 C.2     1  UNL1        0.0288
      4 C          65.3039   93.0227   16.4042 C.2     1  UNL1        0.0896
      5 N          64.2694   92.1021   16.9808 N.am    1  UNL1       -0.1770
      6 C          63.8543   90.8739   16.2263 C.2     1  UNL1        0.2627
      7 O          62.8199   89.9534   16.8029 O.2     1  UNL1       -0.2719
      8 C          61.8801   88.1067   10.1720 C.3     1  UNL1        0.0312
      9 C          62.4702   87.2456   11.2492 C.2     1  UNL1        0.0136
     10 C          62.4057   85.7514   11.1344 C.2     1  UNL1        0.0107
     11 C          62.9957   84.8903   12.2115 C.2     1  UNL1        0.0510
     12 C          63.6503   85.5233   13.4035 C.2     1  UNL1        0.0613
     13 C          63.7148   87.0175   13.5183 C.2     1  UNL1        0.2246
     14 N          64.2919   87.9195   14.5687 N.2     1  UNL1       -0.0378
     15 C          64.0586   89.3380   14.1407 C.2     1  UNL1        0.3605
     16 N          63.3372   89.3128   12.8258 N.2     1  UNL1       -0.0547
     17 C          63.1247   87.8787   12.4411 C.3     1  UNL1        0.2976
     18 N          62.9313   83.3960   12.0967 N.pl3   1  UNL1       -0.3027
     19 C          62.4262   82.5765   13.2470 C.3     1  UNL1        0.1231
     20 C          62.3617   81.0823   13.1322 C.3     1  UNL1        0.1636
     21 O          62.8023   80.4076   11.8671 O.3     1  UNL1       -0.3501
     22 C          63.3074   81.2271   10.7167 C.3     1  UNL1        0.1636
     23 C          63.3718   82.7213   10.8315 C.3     1  UNL1        0.1231
     24 N          66.1275   91.1792   12.9875 N.pl3   1  UNL1       -0.3348
     25 H          65.7405   90.4783   12.4147 H       1  UNL1        0.1466
     26 C          67.3366   91.9395   12.5292 C.3     1  UNL1        0.0933
     27 C          67.4531   92.3707   11.0973 C.3     1  UNL1        0.0694
     28 C          67.1491   93.7887   10.7140 C.ar    1  UNL1        0.0890
     29 N          66.4947   94.8173   11.5879 N.ar    1  UNL1       -0.2274
     30 C          66.3873   96.0913   10.8034 C.ar    1  UNL1        0.1789
     31 N          66.9752   95.8502    9.4448 N.ar    1  UNL1       -0.2986
     32 C          67.0749   96.8555    8.3360 C.3     1  UNL1        0.1329
     33 C          67.4461   94.4270    9.3894 C.ar    1  UNL1        0.1338
     34 CL         68.0992   93.7594    8.2157 Cl      1  UNL1       -0.0619
@<TRIPOS>BOND
     1     8     9    1
     2     9    10    2
     3    10    11    1
     4    11    18    1
     5    18    19    1
     6    19    20    1
     7    20    21    1
     8    21    22    1
     9    22    23    1
    10    11    12    2
    11    12    13    1
    12    13    14    2
    13    14    15    1
    14    15     1    1
    15     1     2    1
    16     2    24    1
    17    24    26    1
    18    26    27    1
    19    27    28    1
    20    28    29   ar
    21    29    30   ar
    22    30    31   ar
    23    31    32    1
    24    31    33   ar
    25    33    34    1
    26     2     3    2
    27     3     4    1
    28     4     5    2
    29     5     6    1
    30     6     7    2
    31    15    16    2
    32    16    17    1
    33    17     9    1
    34    23    18    1
    35    17    13    1
    36     6     1    1
    37    33    28   ar
    38    24    25    1
@<TRIPOS>MOLECULE
*****
 34 38 0 0 0
SMALL
GASTEIGER

@<TRIPOS>ATOM
      1 C          62.9973   84.3677   13.6057 C.3     1  UNL1        0.2246
      2 C          63.4199   83.4143   12.5275 C.2     1  UNL1        0.0435
      3 C          63.0910   81.9555   12.6453 C.2     1  UNL1        0.0288
      4 C          62.3397   81.4501   13.8412 C.2     1  UNL1        0.0896
      5 N          61.9172   82.4035   14.9193 N.am    1  UNL1       -0.1770
      6 C          62.2460   83.8623   14.8015 C.2     1  UNL1        0.2627
      7 O          61.8235   84.8158   15.8797 O.2     1  UNL1       -0.2719
      8 C          62.2676   89.5617   10.8534 C.3     1  UNL1        0.0312
      9 C          63.1922   89.4482   12.0291 C.2     1  UNL1        0.0136
     10 C          63.9392   90.6547   12.5151 C.2     1  UNL1        0.0107
     11 C          64.8637   90.5413   13.6907 C.2     1  UNL1        0.0510
     12 C          65.0413   89.2211   14.3806 C.2     1  UNL1        0.0613
     13 C          64.2943   88.0146   13.8946 C.2     1  UNL1        0.2246
     14 N          64.2674   86.5921   14.3700 N.2     1  UNL1       -0.0378
     15 C          63.3261   85.8265   13.4880 C.2     1  UNL1        0.3605
     16 N          62.7714   86.7758   12.4676 N.2     1  UNL1       -0.0547
     17 C          63.3697   88.1281   12.7189 C.3     1  UNL1        0.2976
     18 N          65.6107   91.7479   14.1766 N.pl3   1  UNL1       -0.3027
     19 C          65.8637   92.8979   13.2473 C.3     1  UNL1        0.1231
     20 C          66.6107   94.1045   13.7332 C.3     1  UNL1        0.1636
     21 O          67.1047   94.1611   15.1484 O.3     1  UNL1       -0.3501
     22 C          66.8518   93.0111   16.0777 C.3     1  UNL1        0.1636
     23 C          66.1048   91.8045   15.5918 C.3     1  UNL1        0.1231
     24 N          64.1712   83.9196   11.3316 N.pl3   1  UNL1       -0.3348
     25 H          64.9182   84.5499   11.4498 H       1  UNL1        0.1466
     26 C          63.7844   83.4646    9.9556 C.3     1  UNL1        0.0933
     27 C          63.5176   84.4745    8.8791 C.3     1  UNL1        0.0694
     28 C          62.2613   85.2932    8.9136 C.ar    1  UNL1        0.0890
     29 N          61.7331   86.0481   10.0972 N.ar    1  UNL1       -0.2274
     30 C          60.4578   86.7222    9.6856 C.ar    1  UNL1        0.1789
     31 N          60.1979   86.3839    8.2476 N.ar    1  UNL1       -0.2986
     32 C          59.0287   86.8474    7.4302 C.3     1  UNL1        0.1329
     33 C          61.3125   85.5007    7.7704 C.ar    1  UNL1        0.1338
     34 CL         61.4536   84.9260    6.3921 Cl      1  UNL1       -0.0619
@<TRIPOS>BOND
     1     8     9    1
     2     9    10    2
     3    10    11    1
     4    11    18    1
     5    18    19    1
     6    19    20    1
     7    20    21    1
     8    21    22    1
     9    22    23    1
    10    11    12    2
    11    12    13    1
    12    13    14    2
    13    14    15    1
    14    15     1    1
    15     1     2    1
    16     2    24    1
    17    24    26    1
    18    26    27    1
    19    27    28    1
    20    28    29   ar
    21    29    30   ar
    22    30    31   ar
    23    31    32    1
    24    31    33   ar
    25    33    34    1
    26     2     3    2
    27     3     4    1
    28     4     5    2
    29     5     6    1
    30     6     7    2
    31    15    16    2
    32    16    17    1
    33    17     9    1
    34    23    18    1
    35    17    13    1
    36     6     1    1
    37    33    28   ar
    38    24    25    1
@<TRIPOS>MOLECULE
*****
 34 38 0 0 0
SMALL
GASTEIGER

@<TRIPOS>ATOM
      1 C          62.9558   83.5307   13.6813 C.3     1  UNL1        0.2246
      2 C          62.7009   83.1659   12.2488 C.2     1  UNL1        0.0435
      3 C          62.4127   81.7414   11.8776 C.2     1  UNL1        0.0288
      4 C          62.3794   80.6817   12.9387 C.2     1  UNL1        0.0896
      5 N          62.6343   81.0465   14.3712 N.am    1  UNL1       -0.1770
      6 C          62.9225   82.4710   14.7424 C.2     1  UNL1        0.2627
      7 O          63.1775   82.8358   16.1748 O.2     1  UNL1       -0.2719
      8 C          62.8279   87.8898   17.6896 C.3     1  UNL1        0.0312
      9 C          63.3825   88.1353   16.3176 C.2     1  UNL1        0.0136
     10 C          63.9093   89.4916   15.9532 C.2     1  UNL1        0.0107
     11 C          64.4639   89.7370   14.5814 C.2     1  UNL1        0.0510
     12 C          64.4916   88.6262   13.5737 C.2     1  UNL1        0.0613
     13 C          63.9647   87.2698   13.9381 C.2     1  UNL1        0.2246
     14 N          63.8620   85.9910   13.1610 N.2     1  UNL1       -0.0378
     15 C          63.2440   84.9552   14.0526 C.2     1  UNL1        0.3605
     16 N          62.9647   85.5938   15.3808 N.2     1  UNL1       -0.0547
     17 C          63.4102   87.0244   15.3101 C.3     1  UNL1        0.2976
     18 N          64.9908   91.0935   14.2170 N.pl3   1  UNL1       -0.3027
     19 C          65.7019   91.9228   15.2448 C.3     1  UNL1        0.1231
     20 C          66.2288   93.2791   14.8805 C.3     1  UNL1        0.1636
     21 O          66.0445   93.8061   13.4883 O.3     1  UNL1       -0.3501
     22 C          65.3333   92.9768   12.4604 C.3     1  UNL1        0.1636
     23 C          64.8065   91.6205   12.8248 C.3     1  UNL1        0.1231
     24 N          62.7341   84.2255   11.1877 N.pl3   1  UNL1       -0.3348
     25 H          62.2269   85.0604   11.3097 H       1  UNL1        0.1466
     26 C          63.5401   84.0130    9.9406 C.3     1  UNL1        0.0933
     27 C          63.3053   84.8798    8.7391 C.3     1  UNL1        0.0694
     28 C          62.2653   85.9598    8.7851 C.ar    1  UNL1        0.0890
     29 N          62.2593   87.1390    9.7121 N.ar    1  UNL1       -0.2274
     30 C          61.0390   87.9582    9.4122 C.ar    1  UNL1        0.1789
     31 N          60.2909   87.2852    8.2998 N.ar    1  UNL1       -0.2986
     32 C          59.0098   87.7633    7.6832 C.3     1  UNL1        0.1329
     33 C          61.0488   86.0501    7.9123 C.ar    1  UNL1        0.1338
     34 CL         60.6586   85.0763    6.8401 Cl      1  UNL1       -0.0619
@<TRIPOS>BOND
     1     8     9    1
     2     9    10    2
     3    10    11    1
     4    11    18    1
     5    18    19    1
     6    19    20    1
     7    20    21    1
     8    21    22    1
     9    22    23    1
    10    11    12    2
    11    12    13    1
    12    13    14    2
    13    14    15    1
    14    15     1    1
    15     1     2    1
    16     2    24    1
    17    24    26    1
    18    26    27    1
    19    27    28    1
    20    28    29   ar
    21    29    30   ar
    22    30    31   ar
    23    31    32    1
    24    31    33   ar
    25    33    34    1
    26     2     3    2
    27     3     4    1
    28     4     5    2
    29     5     6    1
    30     6     7    2
    31    15    16    2
    32    16    17    1
    33    17     9    1
    34    23    18    1
    35    17    13    1
    36     6     1    1
    37    33    28   ar
    38    24    25    1
