@<TRIPOS>MOLECULE
*****
 40 44 0 0 0
SMALL
GASTEIGER

@<TRIPOS>ATOM
      1 N          62.2182   88.0536   10.9594 N.ar    1  UNL1       -0.2716
      2 C          61.3915   88.5134    9.7954 C.ar    1  UNL1        0.2649
      3 O          60.6463   87.5126    8.9628 O.2     1  UNL1       -0.2666
      4 C          61.3098   89.9740    9.4638 C.ar    1  UNL1        0.0611
      5 C          62.0549   90.9749   10.2963 C.ar    1  UNL1        0.0064
      6 C          62.8818   90.5151   11.4604 C.ar    1  UNL1        0.0177
      7 C          63.6269   91.5160   12.2929 C.ar    1  UNL1        0.0216
      8 C          64.4536   91.0562   13.4569 C.ar    1  UNL1        0.1253
      9 C          64.5353   89.5956   13.7885 C.ar    1  UNL1        0.0217
     10 C          63.7901   88.5947   12.9560 C.ar    1  UNL1        0.0190
     11 C          62.9634   89.0545   11.7920 C.ar    1  UNL1        0.0670
     12 C          62.7357   85.6098   10.2454 C.ar    1  UNL1        0.1547
     13 C          62.8174   84.1492   10.5769 C.ar    1  UNL1        0.0384
     14 C          62.4632   83.6718   11.9541 C.ar    1  UNL1        0.0028
     15 C          62.0273   84.6550   12.9998 C.ar    1  UNL1        0.0017
     16 C          61.9456   86.1156   12.6682 C.ar    1  UNL1        0.0207
     17 C          62.2999   86.5930   11.2910 C.ar    1  UNL1        0.1006
     18 C          62.5448   82.2112   12.2856 C.ar    1  UNL1       -0.0039
     19 C          62.7225   81.2022   11.1900 C.ar    1  UNL1        0.0035
     20 C          62.8041   79.7415   11.5215 C.ar    1  UNL1        0.0714
     21 C          62.7081   79.2899   12.9487 C.ar    1  UNL1        0.0035
     22 C          62.5304   80.2989   14.0443 C.ar    1  UNL1       -0.0043
     23 C          62.4488   81.7595   13.7128 C.ar    1  UNL1       -0.0219
     24 C          62.2711   82.7685   14.8084 C.3     1  UNL1        0.0310
     25 C          62.9817   78.7326   10.4259 C.3     1  UNL1        0.4186
     26 F          63.1594   77.7236    9.3304 F       1  UNL1       -0.1659
     27 F          63.0767   79.8413    9.4202 F       1  UNL1       -0.1659
     28 F          62.8868   77.6238   11.4317 F       1  UNL1       -0.1659
     29 C          62.8362   85.2065    7.6807 C.3     1  UNL1        0.2525
     30 O          63.0900   86.0872    8.8681 O.3     1  UNL1       -0.4700
     31 S          65.1988   92.0571   14.2895 S.O2    1  UNL1        0.0748
     32 O          65.0603   91.1642   15.4868 O.2     1  UNL1       -0.1499
     33 O          65.3373   92.9499   13.0922 O.2     1  UNL1       -0.1499
     34 N          65.9439   93.0578   15.1221 N.pl3   1  UNL1       -0.1962
     35 H          65.4492   93.6865   15.6959 H       1  UNL1        0.1754
     36 C          67.4428   93.1007   15.0804 C.ar    1  UNL1        0.1893
     37 C          68.3316   93.8175   16.0531 C.ar    1  UNL1        0.0823
     38 C          69.7541   93.5942   15.6326 C.ar    1  UNL1        0.2152
     39 O          69.7443   92.7394   14.3999 O.2     1  UNL1       -0.3489
     40 N          68.3158   92.4345   14.0587 N.ar    1  UNL1       -0.0605
@<TRIPOS>BOND
     1    29    30    1
     2    30    12    1
     3    12    13   ar
     4    13    14   ar
     5    14    18    1
     6    18    19   ar
     7    19    20   ar
     8    20    25    1
     9    25    26    1
    10    25    27    1
    11    25    28    1
    12    20    21   ar
    13    21    22   ar
    14    22    23   ar
    15    23    24    1
    16    14    15   ar
    17    15    16   ar
    18    16    17   ar
    19    17     1    1
    20     1     2   ar
    21     2     3    2
    22     2     4   ar
    23     4     5   ar
    24     5     6   ar
    25     6     7   ar
    26     7     8   ar
    27     8    31    1
    28    31    32    2
    29    31    33    2
    30    31    34    1
    31    34    36    1
    32    36    37   ar
    33    37    38   ar
    34    38    39   ar
    35    39    40   ar
    36     8     9   ar
    37     9    10   ar
    38    10    11   ar
    39    17    12   ar
    40    11     1   ar
    41    23    18   ar
    42    11     6   ar
    43    40    36   ar
    44    34    35    1
@<TRIPOS>MOLECULE
*****
 40 44 0 0 0
SMALL
GASTEIGER

@<TRIPOS>ATOM
      1 N          64.0153   89.4883   15.4974 N.ar    1  UNL1       -0.2716
      2 C          63.4490   90.1087   16.7401 C.ar    1  UNL1        0.2649
      3 O          63.5345   91.5925   16.9435 O.2     1  UNL1       -0.2666
      4 C          62.7973   89.2455   17.7793 C.ar    1  UNL1        0.0611
      5 C          62.7118   87.7619   17.5759 C.ar    1  UNL1        0.0064
      6 C          63.2781   87.1413   16.3332 C.ar    1  UNL1        0.0177
      7 C          63.1926   85.6577   16.1298 C.ar    1  UNL1        0.0216
      8 C          63.7589   85.0373   14.8871 C.ar    1  UNL1        0.1253
      9 C          64.4106   85.9005   13.8478 C.ar    1  UNL1        0.0217
     10 C          64.4961   87.3841   14.0512 C.ar    1  UNL1        0.0190
     11 C          63.9298   88.0045   15.2939 C.ar    1  UNL1        0.0670
     12 C          63.9335   90.6858   13.1932 C.ar    1  UNL1        0.1547
     13 C          64.5852   91.5490   12.1539 C.ar    1  UNL1        0.0384
     14 C          65.9706   92.0779   12.3796 C.ar    1  UNL1        0.0028
     15 C          66.7043   91.7436   13.6445 C.ar    1  UNL1        0.0017
     16 C          66.0525   90.8804   14.6838 C.ar    1  UNL1        0.0207
     17 C          64.6671   90.3515   14.4581 C.ar    1  UNL1        0.1006
     18 C          66.6224   92.9411   11.3403 C.ar    1  UNL1       -0.0039
     19 C          67.4150   92.3124   10.2327 C.ar    1  UNL1        0.0035
     20 C          68.0668   93.1756    9.1934 C.ar    1  UNL1        0.0714
     21 C          67.9259   94.6675    9.2617 C.ar    1  UNL1        0.0035
     22 C          67.1333   95.2961   10.3693 C.ar    1  UNL1       -0.0043
     23 C          66.4816   94.4329   11.4085 C.ar    1  UNL1       -0.0219
     24 C          65.6889   95.0615   12.5161 C.3     1  UNL1        0.0310
     25 C          68.8593   92.5470    8.0859 C.3     1  UNL1        0.4186
     26 F          69.6519   91.9185    6.9784 F       1  UNL1       -0.1659
     27 F          69.2937   91.4542    9.0170 F       1  UNL1       -0.1659
     28 F          68.4250   93.6399    7.1548 F       1  UNL1       -0.1659
     29 C          62.2364   89.3760   11.7254 C.3     1  UNL1        0.2525
     30 O          62.5480   90.1569   12.9675 O.3     1  UNL1       -0.4700
     31 S          63.6734   83.5535   14.6836 S.O2    1  UNL1        0.0748
     32 O          62.2177   83.5881   15.0436 O.2     1  UNL1       -0.1499
     33 O          65.1291   83.5190   14.3236 O.2     1  UNL1       -0.1499
     34 N          63.5879   82.0699   14.4801 N.pl3   1  UNL1       -0.1962
     35 H          63.6891   81.4612   15.2473 H       1  UNL1        0.1754
     36 C          63.3480   81.5136   13.1078 C.ar    1  UNL1        0.1893
     37 C          62.7220   80.1878   12.7910 C.ar    1  UNL1        0.0823
     38 C          62.6792   80.0402   11.2988 C.ar    1  UNL1        0.2152
     39 O          63.2788   81.2748   10.6936 O.2     1  UNL1       -0.3489
     40 N          63.6922   82.1854   11.8116 N.ar    1  UNL1       -0.0605
@<TRIPOS>BOND
     1    29    30    1
     2    30    12    1
     3    12    13   ar
     4    13    14   ar
     5    14    18    1
     6    18    19   ar
     7    19    20   ar
     8    20    25    1
     9    25    26    1
    10    25    27    1
    11    25    28    1
    12    20    21   ar
    13    21    22   ar
    14    22    23   ar
    15    23    24    1
    16    14    15   ar
    17    15    16   ar
    18    16    17   ar
    19    17     1    1
    20     1     2   ar
    21     2     3    2
    22     2     4   ar
    23     4     5   ar
    24     5     6   ar
    25     6     7   ar
    26     7     8   ar
    27     8    31    1
    28    31    32    2
    29    31    33    2
    30    31    34    1
    31    34    36    1
    32    36    37   ar
    33    37    38   ar
    34    38    39   ar
    35    39    40   ar
    36     8     9   ar
    37     9    10   ar
    38    10    11   ar
    39    17    12   ar
    40    11     1   ar
    41    23    18   ar
    42    11     6   ar
    43    40    36   ar
    44    34    35    1
@<TRIPOS>MOLECULE
*****
 40 44 0 0 0
SMALL
GASTEIGER

@<TRIPOS>ATOM
      1 N          64.0600   89.5764   15.1528 N.ar    1  UNL1       -0.2716
      2 C          63.4758   90.2502   16.3589 C.ar    1  UNL1        0.2649
      3 O          63.4950   91.7464   16.4651 O.2     1  UNL1       -0.2666
      4 C          62.8723   89.4279   17.4587 C.ar    1  UNL1        0.0611
      5 C          62.8530   87.9318   17.3525 C.ar    1  UNL1        0.0064
      6 C          63.4372   87.2580   16.1464 C.ar    1  UNL1        0.0177
      7 C          63.4180   85.7619   16.0401 C.ar    1  UNL1        0.0216
      8 C          64.0022   85.0881   14.8341 C.ar    1  UNL1        0.1253
      9 C          64.6057   85.9104   13.7342 C.ar    1  UNL1        0.0217
     10 C          64.6250   87.4065   13.8405 C.ar    1  UNL1        0.0190
     11 C          64.0408   88.0802   15.0465 C.ar    1  UNL1        0.0670
     12 C          65.9497   91.1344   14.2859 C.ar    1  UNL1        0.1547
     13 C          66.5532   91.9567   13.1861 C.ar    1  UNL1        0.0384
     14 C          65.8705   92.0433   11.8533 C.ar    1  UNL1        0.0028
     15 C          64.5842   91.3076   11.6203 C.ar    1  UNL1        0.0017
     16 C          63.9807   90.4853   12.7201 C.ar    1  UNL1        0.0207
     17 C          64.6635   90.3987   14.0530 C.ar    1  UNL1        0.1006
     18 C          66.4740   92.8655   10.7535 C.ar    1  UNL1       -0.0039
     19 C          65.6543   93.9182   10.0678 C.ar    1  UNL1        0.0035
     20 C          66.2578   94.7405    8.9679 C.ar    1  UNL1        0.0714
     21 C          67.6810   94.5101    8.5538 C.ar    1  UNL1        0.0035
     22 C          68.5007   93.4575    9.2395 C.ar    1  UNL1       -0.0043
     23 C          67.8972   92.6353   10.3393 C.ar    1  UNL1       -0.0219
     24 C          68.7169   91.5826   11.0250 C.3     1  UNL1        0.0310
     25 C          65.4381   95.7930    8.2823 C.3     1  UNL1        0.4186
     26 F          64.6185   96.8456    7.5966 F       1  UNL1       -0.1659
     27 F          66.1281   95.4861    6.9863 F       1  UNL1       -0.1659
     28 F          64.7482   96.1000    9.5783 F       1  UNL1       -0.1659
     29 C          67.5489   92.1483   16.0649 C.3     1  UNL1        0.2525
     30 O          66.6326   91.0478   15.6187 O.3     1  UNL1       -0.4700
     31 S          63.9830   83.5919   14.7278 S.O2    1  UNL1        0.0748
     32 O          63.7669   83.4896   16.2086 O.2     1  UNL1       -0.1499
     33 O          64.1991   83.6943   13.2470 O.2     1  UNL1       -0.1499
     34 N          63.9637   82.0959   14.6216 N.pl3   1  UNL1       -0.1962
     35 H          64.7957   81.5831   14.7411 H       1  UNL1        0.1754
     36 C          62.6769   81.3809   14.3333 C.ar    1  UNL1        0.1893
     37 C          62.5426   80.0317   13.6917 C.ar    1  UNL1        0.0823
     38 C          61.0812   79.7065   13.5979 C.ar    1  UNL1        0.2152
     39 O          60.3125   80.8548   14.1816 O.2     1  UNL1       -0.3489
     40 N          61.2987   81.8896   14.6360 N.ar    1  UNL1       -0.0605
@<TRIPOS>BOND
     1    29    30    1
     2    30    12    1
     3    12    13   ar
     4    13    14   ar
     5    14    18    1
     6    18    19   ar
     7    19    20   ar
     8    20    25    1
     9    25    26    1
    10    25    27    1
    11    25    28    1
    12    20    21   ar
    13    21    22   ar
    14    22    23   ar
    15    23    24    1
    16    14    15   ar
    17    15    16   ar
    18    16    17   ar
    19    17     1    1
    20     1     2   ar
    21     2     3    2
    22     2     4   ar
    23     4     5   ar
    24     5     6   ar
    25     6     7   ar
    26     7     8   ar
    27     8    31    1
    28    31    32    2
    29    31    33    2
    30    31    34    1
    31    34    36    1
    32    36    37   ar
    33    37    38   ar
    34    38    39   ar
    35    39    40   ar
    36     8     9   ar
    37     9    10   ar
    38    10    11   ar
    39    17    12   ar
    40    11     1   ar
    41    23    18   ar
    42    11     6   ar
    43    40    36   ar
    44    34    35    1
@<TRIPOS>MOLECULE
*****
 40 44 0 0 0
SMALL
GASTEIGER

@<TRIPOS>ATOM
      1 N          63.8258   89.0199   14.9783 N.ar    1  UNL1       -0.2716
      2 C          63.3602   89.1238   16.4004 C.ar    1  UNL1        0.2649
      3 O          62.7716   87.9266   17.0862 O.2     1  UNL1       -0.2666
      4 C          63.4833   90.4248   17.1367 C.ar    1  UNL1        0.0611
      5 C          64.0719   91.6220   16.4509 C.ar    1  UNL1        0.0064
      6 C          64.5375   91.5181   15.0288 C.ar    1  UNL1        0.0177
      7 C          65.1262   92.7153   14.3430 C.ar    1  UNL1        0.0216
      8 C          65.5918   92.6114   12.9209 C.ar    1  UNL1        0.1253
      9 C          65.4687   91.3103   12.1846 C.ar    1  UNL1        0.0217
     10 C          64.8801   90.1132   12.8704 C.ar    1  UNL1        0.0190
     11 C          64.4145   90.2171   14.2925 C.ar    1  UNL1        0.0670
     12 C          62.8825   87.6411   12.9886 C.ar    1  UNL1        0.1547
     13 C          62.7595   86.3400   12.2523 C.ar    1  UNL1        0.0384
     14 C          63.4568   85.1168   12.7693 C.ar    1  UNL1        0.0028
     15 C          64.2771   85.1945   14.0228 C.ar    1  UNL1        0.0017
     16 C          64.4002   86.4956   14.7591 C.ar    1  UNL1        0.0207
     17 C          63.7028   87.7189   14.2420 C.ar    1  UNL1        0.1006
     18 C          63.3337   83.8158   12.0330 C.ar    1  UNL1       -0.0039
     19 C          63.0231   82.5552   12.7844 C.ar    1  UNL1        0.0035
     20 C          62.9000   81.2541   12.0481 C.ar    1  UNL1        0.0714
     21 C          63.0877   81.2137   10.5604 C.ar    1  UNL1        0.0035
     22 C          63.3984   82.4742    9.8090 C.ar    1  UNL1       -0.0043
     23 C          63.5214   83.7752   10.5454 C.ar    1  UNL1       -0.0219
     24 C          63.8321   85.0358    9.7940 C.3     1  UNL1        0.0310
     25 C          62.5894   79.9936   12.7994 C.3     1  UNL1        0.4186
     26 F          62.2787   78.7331   13.5507 F       1  UNL1       -0.1659
     27 F          62.5098   80.7749   14.0773 F       1  UNL1       -0.1659
     28 F          62.6690   79.2123   11.5214 F       1  UNL1       -0.1659
     29 C          62.0178   89.0642   10.9944 C.3     1  UNL1        0.2525
     30 O          62.1852   88.8644   12.4715 O.3     1  UNL1       -0.4700
     31 S          66.1804   93.8086   12.2351 S.O2    1  UNL1        0.0748
     32 O          66.9233   94.1617   13.4894 O.2     1  UNL1       -0.1499
     33 O          65.4375   93.4554   10.9808 O.2     1  UNL1       -0.1499
     34 N          66.7691   95.0057   11.5493 N.pl3   1  UNL1       -0.1962
     35 H          66.9729   95.8184   12.0663 H       1  UNL1        0.1754
     36 C          67.0472   94.9646   10.0759 C.ar    1  UNL1        0.1893
     37 C          66.4437   95.8655    9.0394 C.ar    1  UNL1        0.0823
     38 C          67.0012   95.4732    7.7031 C.ar    1  UNL1        0.2152
     39 O          67.9491   94.3299    7.9139 O.2     1  UNL1       -0.3489
     40 N          67.9775   94.0156    9.3803 N.ar    1  UNL1       -0.0605
@<TRIPOS>BOND
     1    29    30    1
     2    30    12    1
     3    12    13   ar
     4    13    14   ar
     5    14    18    1
     6    18    19   ar
     7    19    20   ar
     8    20    25    1
     9    25    26    1
    10    25    27    1
    11    25    28    1
    12    20    21   ar
    13    21    22   ar
    14    22    23   ar
    15    23    24    1
    16    14    15   ar
    17    15    16   ar
    18    16    17   ar
    19    17     1    1
    20     1     2   ar
    21     2     3    2
    22     2     4   ar
    23     4     5   ar
    24     5     6   ar
    25     6     7   ar
    26     7     8   ar
    27     8    31    1
    28    31    32    2
    29    31    33    2
    30    31    34    1
    31    34    36    1
    32    36    37   ar
    33    37    38   ar
    34    38    39   ar
    35    39    40   ar
    36     8     9   ar
    37     9    10   ar
    38    10    11   ar
    39    17    12   ar
    40    11     1   ar
    41    23    18   ar
    42    11     6   ar
    43    40    36   ar
    44    34    35    1
@<TRIPOS>MOLECULE
*****
 40 44 0 0 0
SMALL
GASTEIGER

@<TRIPOS>ATOM
      1 N          64.1211   89.9828   15.3522 N.ar    1  UNL1       -0.2716
      2 C          63.5539   90.6896   16.5475 C.ar    1  UNL1        0.2649
      3 O          63.6279   92.1850   16.6395 O.2     1  UNL1       -0.2666
      4 C          62.9128   89.9012   17.6508 C.ar    1  UNL1        0.0611
      5 C          62.8388   88.4058   17.5588 C.ar    1  UNL1        0.0064
      6 C          63.4060   87.6989   16.3635 C.ar    1  UNL1        0.0177
      7 C          63.3320   86.2036   16.2715 C.ar    1  UNL1        0.0216
      8 C          63.8991   85.4968   15.0762 C.ar    1  UNL1        0.1253
      9 C          64.5403   86.2853   13.9730 C.ar    1  UNL1        0.0217
     10 C          64.6143   87.7806   14.0649 C.ar    1  UNL1        0.0190
     11 C          64.0471   88.4874   15.2602 C.ar    1  UNL1        0.0670
     12 C          66.1221   91.3719   14.4488 C.ar    1  UNL1        0.1547
     13 C          66.7632   92.1604   13.3455 C.ar    1  UNL1        0.0384
     14 C          66.0445   92.3483   12.0424 C.ar    1  UNL1        0.0028
     15 C          64.6845   91.7477   11.8425 C.ar    1  UNL1        0.0017
     16 C          64.0434   90.9592   12.9458 C.ar    1  UNL1        0.0207
     17 C          64.7622   90.7713   14.2490 C.ar    1  UNL1        0.1006
     18 C          66.6856   93.1368   10.9391 C.ar    1  UNL1       -0.0039
     19 C          67.5431   92.4434    9.9222 C.ar    1  UNL1        0.0035
     20 C          68.1842   93.2319    8.8189 C.ar    1  UNL1        0.0714
     21 C          67.9679   94.7138    8.7326 C.ar    1  UNL1        0.0035
     22 C          67.1104   95.4071    9.7495 C.ar    1  UNL1       -0.0043
     23 C          66.4693   94.6186   10.8527 C.ar    1  UNL1       -0.0219
     24 C          65.6118   95.3119   11.8697 C.3     1  UNL1        0.0310
     25 C          69.0416   92.5387    7.8020 C.3     1  UNL1        0.4186
     26 F          69.8990   91.8454    6.7851 F       1  UNL1       -0.1659
     27 F          68.5793   93.5058    6.7528 F       1  UNL1       -0.1659
     28 F          69.5040   91.5715    8.8512 F       1  UNL1       -0.1659
     29 C          67.7996   92.2306   16.2372 C.3     1  UNL1        0.2525
     30 O          66.8409   91.1841   15.7519 O.3     1  UNL1       -0.4700
     31 S          63.8252   84.0014   14.9842 S.O2    1  UNL1        0.0748
     32 O          65.2597   83.9573   14.5483 O.2     1  UNL1       -0.1499
     33 O          62.3906   84.0455   15.4201 O.2     1  UNL1       -0.1499
     34 N          63.7513   82.5061   14.8922 N.pl3   1  UNL1       -0.1962
     35 H          63.9238   81.9547   15.6893 H       1  UNL1        0.1754
     36 C          63.4145   81.8508   13.5855 C.ar    1  UNL1        0.1893
     37 C          63.4628   82.5013   12.2348 C.ar    1  UNL1        0.0823
     38 C          63.0485   81.4825   11.2146 C.ar    1  UNL1        0.2152
     39 O          62.7442   80.2025   11.9350 O.2     1  UNL1       -0.3489
     40 N          62.9704   80.4301   13.4003 N.ar    1  UNL1       -0.0605
@<TRIPOS>BOND
     1    29    30    1
     2    30    12    1
     3    12    13   ar
     4    13    14   ar
     5    14    18    1
     6    18    19   ar
     7    19    20   ar
     8    20    25    1
     9    25    26    1
    10    25    27    1
    11    25    28    1
    12    20    21   ar
    13    21    22   ar
    14    22    23   ar
    15    23    24    1
    16    14    15   ar
    17    15    16   ar
    18    16    17   ar
    19    17     1    1
    20     1     2   ar
    21     2     3    2
    22     2     4   ar
    23     4     5   ar
    24     5     6   ar
    25     6     7   ar
    26     7     8   ar
    27     8    31    1
    28    31    32    2
    29    31    33    2
    30    31    34    1
    31    34    36    1
    32    36    37   ar
    33    37    38   ar
    34    38    39   ar
    35    39    40   ar
    36     8     9   ar
    37     9    10   ar
    38    10    11   ar
    39    17    12   ar
    40    11     1   ar
    41    23    18   ar
    42    11     6   ar
    43    40    36   ar
    44    34    35    1
@<TRIPOS>MOLECULE
*****
 40 44 0 0 0
SMALL
GASTEIGER

@<TRIPOS>ATOM
      1 N          62.3423   88.1332   11.1085 N.ar    1  UNL1       -0.2716
      2 C          61.5754   88.5263    9.8808 C.ar    1  UNL1        0.2649
      3 O          60.8168   87.4896    9.1063 O.2     1  UNL1       -0.2666
      4 C          61.5671   89.9562    9.4275 C.ar    1  UNL1        0.0611
      5 C          62.3256   90.9929   10.2019 C.ar    1  UNL1        0.0064
      6 C          63.0926   90.5998   11.4297 C.ar    1  UNL1        0.0177
      7 C          63.8511   91.6365   12.2041 C.ar    1  UNL1        0.0216
      8 C          64.6180   91.2434   13.4318 C.ar    1  UNL1        0.1253
      9 C          64.6263   89.8136   13.8851 C.ar    1  UNL1        0.0217
     10 C          63.8678   88.7768   13.1107 C.ar    1  UNL1        0.0190
     11 C          63.1009   89.1700   11.8830 C.ar    1  UNL1        0.0670
     12 C          62.5514   85.6014   10.5641 C.ar    1  UNL1        0.1547
     13 C          62.5598   84.1716   11.0175 C.ar    1  UNL1        0.0384
     14 C          62.3673   83.8437   12.4684 C.ar    1  UNL1        0.0028
     15 C          62.1665   84.9456   13.4662 C.ar    1  UNL1        0.0017
     16 C          62.1582   86.3755   13.0129 C.ar    1  UNL1        0.0207
     17 C          62.3506   86.7034   11.5618 C.ar    1  UNL1        0.1006
     18 C          62.3756   82.4138   12.9217 C.ar    1  UNL1       -0.0039
     19 C          61.0971   81.7543   13.3468 C.ar    1  UNL1        0.0035
     20 C          61.1055   80.3245   13.8001 C.ar    1  UNL1        0.0714
     21 C          62.3923   79.5542   13.8283 C.ar    1  UNL1        0.0035
     22 C          63.6707   80.2137   13.4033 C.ar    1  UNL1       -0.0043
     23 C          63.6624   81.6435   12.9500 C.ar    1  UNL1       -0.0219
     24 C          64.9409   82.3030   12.5250 C.3     1  UNL1        0.0310
     25 C          59.8271   79.6650   14.2251 C.3     1  UNL1        0.4186
     26 F          58.5487   79.0055   14.6501 F       1  UNL1       -0.1659
     27 F          59.1469   81.0016   14.2532 F       1  UNL1       -0.1659
     28 F          60.5072   78.3284   14.1969 F       1  UNL1       -0.1659
     29 C          63.0189   84.8334    8.1266 C.3     1  UNL1        0.2525
     30 O          62.7439   85.9293    9.1131 O.3     1  UNL1       -0.4700
     31 S          65.3766   92.2802   14.2063 S.O2    1  UNL1        0.0748
     32 O          65.2443   91.4493   15.4481 O.2     1  UNL1       -0.1499
     33 O          65.5089   93.1111   12.9645 O.2     1  UNL1       -0.1499
     34 N          66.1352   93.3168   14.9807 N.pl3   1  UNL1       -0.1962
     35 H          65.6494   94.0267   15.4597 H       1  UNL1        0.1754
     36 C          67.6339   93.2721   15.0254 C.ar    1  UNL1        0.1893
     37 C          68.5058   93.9402   16.0469 C.ar    1  UNL1        0.0823
     38 C          69.9346   93.6323   15.7093 C.ar    1  UNL1        0.2152
     39 O          69.9456   92.7740   14.4792 O.2     1  UNL1       -0.3489
     40 N          68.5237   92.5513   14.0565 N.ar    1  UNL1       -0.0605
@<TRIPOS>BOND
     1    29    30    1
     2    30    12    1
     3    12    13   ar
     4    13    14   ar
     5    14    18    1
     6    18    19   ar
     7    19    20   ar
     8    20    25    1
     9    25    26    1
    10    25    27    1
    11    25    28    1
    12    20    21   ar
    13    21    22   ar
    14    22    23   ar
    15    23    24    1
    16    14    15   ar
    17    15    16   ar
    18    16    17   ar
    19    17     1    1
    20     1     2   ar
    21     2     3    2
    22     2     4   ar
    23     4     5   ar
    24     5     6   ar
    25     6     7   ar
    26     7     8   ar
    27     8    31    1
    28    31    32    2
    29    31    33    2
    30    31    34    1
    31    34    36    1
    32    36    37   ar
    33    37    38   ar
    34    38    39   ar
    35    39    40   ar
    36     8     9   ar
    37     9    10   ar
    38    10    11   ar
    39    17    12   ar
    40    11     1   ar
    41    23    18   ar
    42    11     6   ar
    43    40    36   ar
    44    34    35    1
@<TRIPOS>MOLECULE
*****
 40 44 0 0 0
SMALL
GASTEIGER

@<TRIPOS>ATOM
      1 N          61.5804   87.9274   10.2491 N.ar    1  UNL1       -0.2716
      2 C          60.4667   88.1563    9.2707 C.ar    1  UNL1        0.2649
      3 O          59.6237   87.0039    8.8108 O.2     1  UNL1       -0.2666
      4 C          60.1960   89.5375    8.7521 C.ar    1  UNL1        0.0611
      5 C          61.0390   90.6899    9.2119 C.ar    1  UNL1        0.0064
      6 C          62.1527   90.4610   10.1904 C.ar    1  UNL1        0.0177
      7 C          62.9957   91.6133   10.6502 C.ar    1  UNL1        0.0216
      8 C          64.1094   91.3844   11.6286 C.ar    1  UNL1        0.1253
      9 C          64.3800   90.0032   12.1472 C.ar    1  UNL1        0.0217
     10 C          63.5371   88.8509   11.6874 C.ar    1  UNL1        0.0190
     11 C          62.4234   89.0798   10.7090 C.ar    1  UNL1        0.0670
     12 C          62.4519   85.5103    9.8645 C.ar    1  UNL1        0.1547
     13 C          62.7225   84.1291   10.3831 C.ar    1  UNL1        0.0384
     14 C          62.3924   83.7837   11.8049 C.ar    1  UNL1        0.0028
     15 C          61.7915   84.8197   12.7083 C.ar    1  UNL1        0.0017
     16 C          61.5209   86.2009   12.1896 C.ar    1  UNL1        0.0207
     17 C          61.8510   86.5462   10.7677 C.ar    1  UNL1        0.1006
     18 C          62.6631   82.4025   12.3235 C.ar    1  UNL1       -0.0039
     19 C          62.5768   81.2241   11.3994 C.ar    1  UNL1        0.0035
     20 C          62.8475   79.8429   11.9180 C.ar    1  UNL1        0.0714
     21 C          63.2044   79.6401   13.3607 C.ar    1  UNL1        0.0035
     22 C          63.2907   80.8184   14.2848 C.ar    1  UNL1       -0.0043
     23 C          63.0200   82.1997   13.7662 C.ar    1  UNL1       -0.0219
     24 C          63.1063   83.3781   14.6904 C.3     1  UNL1        0.0310
     25 C          62.7612   78.6645   10.9939 C.3     1  UNL1        0.4186
     26 F          62.6749   77.4862   10.0698 F       1  UNL1       -0.1659
     27 F          62.7407   77.7399   12.1748 F       1  UNL1       -0.1659
     28 F          62.7816   79.5891    9.8130 F       1  UNL1       -0.1659
     29 C          62.7454   84.7928    7.3847 C.3     1  UNL1        0.2525
     30 O          62.7820   85.8556    8.4425 O.3     1  UNL1       -0.4700
     31 S          64.9524   92.5368   12.0884 S.O2    1  UNL1        0.0748
     32 O          65.4480   91.7144   13.2408 O.2     1  UNL1       -0.1499
     33 O          64.4569   93.3593   10.9361 O.2     1  UNL1       -0.1499
     34 N          65.7954   93.6891   12.5483 N.pl3   1  UNL1       -0.1962
     35 H          65.9525   93.8313   13.5097 H       1  UNL1        0.1754
     36 C          66.3992   94.6248   11.5433 C.ar    1  UNL1        0.1893
     37 C          66.1263   96.0957   11.4330 C.ar    1  UNL1        0.0823
     38 C          66.9403   96.6339   10.2937 C.ar    1  UNL1        0.2152
     39 O          67.7162   95.4956    9.7000 O.2     1  UNL1       -0.3489
     40 N          67.3818   94.2540   10.4723 N.ar    1  UNL1       -0.0605
@<TRIPOS>BOND
     1    29    30    1
     2    30    12    1
     3    12    13   ar
     4    13    14   ar
     5    14    18    1
     6    18    19   ar
     7    19    20   ar
     8    20    25    1
     9    25    26    1
    10    25    27    1
    11    25    28    1
    12    20    21   ar
    13    21    22   ar
    14    22    23   ar
    15    23    24    1
    16    14    15   ar
    17    15    16   ar
    18    16    17   ar
    19    17     1    1
    20     1     2   ar
    21     2     3    2
    22     2     4   ar
    23     4     5   ar
    24     5     6   ar
    25     6     7   ar
    26     7     8   ar
    27     8    31    1
    28    31    32    2
    29    31    33    2
    30    31    34    1
    31    34    36    1
    32    36    37   ar
    33    37    38   ar
    34    38    39   ar
    35    39    40   ar
    36     8     9   ar
    37     9    10   ar
    38    10    11   ar
    39    17    12   ar
    40    11     1   ar
    41    23    18   ar
    42    11     6   ar
    43    40    36   ar
    44    34    35    1
