@<TRIPOS>MOLECULE
*****
 45 48 0 0 0
SMALL
GASTEIGER

@<TRIPOS>ATOM
      1 N          59.5336   88.4194    7.8924 N.am    1  UNL1       -0.2724
      2 C          60.2894   88.8379    9.1186 C.2     1  UNL1        0.2491
      3 O          60.1313   90.2281    9.6591 O.2     1  UNL1       -0.2727
      4 C          59.6917   87.0291    7.3520 C.3     1  UNL1        0.1111
      5 C          60.4874   86.0132    8.1166 C.3     1  UNL1        0.0939
      6 N          61.6085   85.2777    7.4441 N.3     1  UNL1       -0.2712
      7 C          63.5628   84.2653    8.8245 C.3     1  UNL1        0.0188
      8 C          63.0031   85.3770    7.9874 C.3     1  UNL1        0.0722
      9 C          61.3349   84.4430    6.2282 C.3     1  UNL1        0.0722
     10 C          62.4176   84.2162    5.2151 C.3     1  UNL1        0.0188
     11 C          58.6197   89.3912    7.2066 C.3     1  UNL1        0.1202
     12 C          59.1385   90.2496    6.0912 C.ar    1  UNL1       -0.0023
     13 C          60.5903   90.1976    5.7178 C.ar    1  UNL1       -0.0026
     14 C          61.1091   91.0559    4.6024 C.ar    1  UNL1       -0.0003
     15 C          60.1760   91.9664    3.8605 C.ar    1  UNL1       -0.0000
     16 C          58.7242   92.0184    4.2339 C.ar    1  UNL1       -0.0003
     17 C          58.2054   91.1601    5.3492 C.ar    1  UNL1       -0.0026
     18 C          60.6948   92.8248    2.7451 C.ar    1  UNL1       -0.0000
     19 C          59.7408   93.6245    1.9082 C.ar    1  UNL1       -0.0001
     20 C          60.2597   94.4829    0.7928 C.ar    1  UNL1        0.0039
     21 C          61.7324   94.5415    0.5143 C.ar    1  UNL1        0.0714
     22 C          62.6864   93.7418    1.3513 C.ar    1  UNL1        0.0039
     23 C          62.1675   92.8834    2.4666 C.ar    1  UNL1       -0.0001
     24 C          62.2512   95.3999   -0.6010 C.3     1  UNL1        0.4186
     25 F          62.7701   96.2582   -1.7163 F       1  UNL1       -0.1659
     26 F          63.1558   96.1071    0.3641 F       1  UNL1       -0.1659
     27 F          61.3467   94.6926   -1.5661 F       1  UNL1       -0.1659
     28 C          61.2033   87.8660    9.8044 C.3     1  UNL1        0.1934
     29 N          62.1009   88.3337   10.9115 N.ar    1  UNL1       -0.2972
     30 C          62.4803   89.7817   11.0083 C.ar    1  UNL1        0.0894
     31 C          63.3779   90.2494   12.1154 C.ar    1  UNL1        0.1095
     32 BR         63.7573   91.6973   12.2123 Br      1  UNL1       -0.0424
     33 C          63.8960   89.2691   13.1257 C.ar    1  UNL1        0.2886
     34 O          64.7936   89.7368   14.2328 O.2     1  UNL1       -0.2645
     35 N          63.5166   87.8211   13.0288 N.ar    1  UNL1       -0.1840
     36 C          62.6190   87.3534   11.9217 C.ar    1  UNL1        0.1751
     37 S          62.2396   85.9055   11.8249 S.3     1  UNL1       -0.0724
     38 C          63.2760   84.8425   12.0396 C.3     1  UNL1        0.0913
     39 C          62.8633   83.4731   12.4915 C.ar    1  UNL1       -0.0108
     40 C          63.0512   82.2950   11.5823 C.ar    1  UNL1       -0.0011
     41 C          62.6386   80.9254   12.0341 C.ar    1  UNL1        0.0293
     42 C          62.0380   80.7340   13.3952 C.ar    1  UNL1        0.1401
     43 F          61.6254   79.3646   13.8471 F       1  UNL1       -0.2042
     44 C          61.8501   81.9122   14.3045 C.ar    1  UNL1        0.0293
     45 C          62.2628   83.2817   13.8526 C.ar    1  UNL1       -0.0011
@<TRIPOS>BOND
     1     7     8    1
     2     8     6    1
     3     6     9    1
     4     9    10    1
     5     6     5    1
     6     5     4    1
     7     4     1    1
     8     1    11    1
     9    11    12    1
    10    12    13   ar
    11    13    14   ar
    12    14    15   ar
    13    15    18    1
    14    18    19   ar
    15    19    20   ar
    16    20    21   ar
    17    21    24    1
    18    24    25    1
    19    24    26    1
    20    24    27    1
    21    21    22   ar
    22    22    23   ar
    23    15    16   ar
    24    16    17   ar
    25     1     2   am
    26     2     3    2
    27     2    28    1
    28    28    29    1
    29    29    30   ar
    30    30    31   ar
    31    31    32    1
    32    31    33   ar
    33    33    34    2
    34    33    35   ar
    35    35    36   ar
    36    36    37    1
    37    37    38    1
    38    38    39    1
    39    39    40   ar
    40    40    41   ar
    41    41    42   ar
    42    42    43    1
    43    42    44   ar
    44    44    45   ar
    45    17    12   ar
    46    36    29   ar
    47    45    39   ar
    48    23    18   ar
@<TRIPOS>MOLECULE
*****
 45 48 0 0 0
SMALL
GASTEIGER

@<TRIPOS>ATOM
      1 N          63.8418   88.9795   15.1404 N.am    1  UNL1       -0.2724
      2 C          63.8437   90.2934   15.8641 C.2     1  UNL1        0.2491
      3 O          63.4898   90.3479   17.3207 O.2     1  UNL1       -0.2727
      4 C          64.1957   88.9250   13.6838 C.3     1  UNL1        0.1111
      5 C          63.3355   89.6282   12.6761 C.3     1  UNL1        0.0939
      6 N          62.2193   88.8906   11.9979 N.3     1  UNL1       -0.2712
      7 C          61.3073   86.6632   11.0196 C.3     1  UNL1        0.0188
      8 C          62.4655   87.5323   11.4111 C.3     1  UNL1        0.0722
      9 C          60.8568   89.5114   11.9065 C.3     1  UNL1        0.0722
     10 C          60.2514   89.7974   10.5642 C.3     1  UNL1        0.0188
     11 C          63.4859   87.7201   15.8734 C.3     1  UNL1        0.1202
     12 C          63.3809   86.4226   15.1280 C.ar    1  UNL1       -0.0023
     13 C          64.4143   86.0609   14.1027 C.ar    1  UNL1       -0.0026
     14 C          64.3093   84.7635   13.3574 C.ar    1  UNL1       -0.0003
     15 C          63.1709   83.8278   13.6373 C.ar    1  UNL1       -0.0000
     16 C          62.1374   84.1895   14.6625 C.ar    1  UNL1       -0.0003
     17 C          62.2424   85.4869   15.4078 C.ar    1  UNL1       -0.0026
     18 C          63.0659   82.5303   12.8918 C.ar    1  UNL1       -0.0000
     19 C          62.6706   81.2784   13.6173 C.ar    1  UNL1       -0.0001
     20 C          62.5656   79.9809   12.8719 C.ar    1  UNL1        0.0039
     21 C          62.8559   79.9354   11.4010 C.ar    1  UNL1        0.0714
     22 C          63.2512   81.1874   10.6755 C.ar    1  UNL1        0.0039
     23 C          63.3562   82.4848   11.4209 C.ar    1  UNL1       -0.0001
     24 C          62.7510   78.6380   10.6556 C.3     1  UNL1        0.4186
     25 F          62.6460   77.3406    9.9101 F       1  UNL1       -0.1659
     26 F          62.6621   79.3893    9.3604 F       1  UNL1       -0.1659
     27 F          62.8398   77.8867   11.9507 F       1  UNL1       -0.1659
     28 C          64.1997   91.5528   15.1310 C.3     1  UNL1        0.1934
     29 N          65.6387   91.8926   14.8788 N.ar    1  UNL1       -0.2972
     30 C          66.6429   91.7728   15.9867 C.ar    1  UNL1        0.0894
     31 C          68.0820   92.1125   15.7344 C.ar    1  UNL1        0.1095
     32 BR         69.0862   91.9928   16.8422 Br      1  UNL1       -0.0424
     33 C          68.5169   92.5721   14.3743 C.ar    1  UNL1        0.2886
     34 O          69.9560   92.9118   14.1221 O.2     1  UNL1       -0.2645
     35 N          67.5127   92.6918   13.2665 N.ar    1  UNL1       -0.1840
     36 C          66.0736   92.3521   13.5188 C.ar    1  UNL1        0.1751
     37 S          65.0694   92.4718   12.4110 S.3     1  UNL1       -0.0724
     38 C          65.4998   92.2896   10.9856 C.3     1  UNL1        0.0913
     39 C          66.1251   93.4305   10.2392 C.ar    1  UNL1       -0.0108
     40 C          67.4136   93.2261    9.4991 C.ar    1  UNL1       -0.0011
     41 C          68.0390   94.3670    8.7527 C.ar    1  UNL1        0.0293
     42 C          67.3758   95.7124    8.7464 C.ar    1  UNL1        0.1401
     43 F          68.0012   96.8534    8.0000 F       1  UNL1       -0.2042
     44 C          66.0872   95.9169    9.4866 C.ar    1  UNL1        0.0293
     45 C          65.4619   94.7759   10.2330 C.ar    1  UNL1       -0.0011
@<TRIPOS>BOND
     1     7     8    1
     2     8     6    1
     3     6     9    1
     4     9    10    1
     5     6     5    1
     6     5     4    1
     7     4     1    1
     8     1    11    1
     9    11    12    1
    10    12    13   ar
    11    13    14   ar
    12    14    15   ar
    13    15    18    1
    14    18    19   ar
    15    19    20   ar
    16    20    21   ar
    17    21    24    1
    18    24    25    1
    19    24    26    1
    20    24    27    1
    21    21    22   ar
    22    22    23   ar
    23    15    16   ar
    24    16    17   ar
    25     1     2   am
    26     2     3    2
    27     2    28    1
    28    28    29    1
    29    29    30   ar
    30    30    31   ar
    31    31    32    1
    32    31    33   ar
    33    33    34    2
    34    33    35   ar
    35    35    36   ar
    36    36    37    1
    37    37    38    1
    38    38    39    1
    39    39    40   ar
    40    40    41   ar
    41    41    42   ar
    42    42    43    1
    43    42    44   ar
    44    44    45   ar
    45    17    12   ar
    46    36    29   ar
    47    45    39   ar
    48    23    18   ar
@<TRIPOS>MOLECULE
*****
 45 48 0 0 0
SMALL
GASTEIGER

@<TRIPOS>ATOM
      1 N          61.1904   86.3387   10.6086 N.am    1  UNL1       -0.2724
      2 C          62.0330   85.2532   10.0071 C.2     1  UNL1        0.2491
      3 O          61.5816   84.5597    8.7561 O.2     1  UNL1       -0.2727
      4 C          61.6419   87.0322   11.8598 C.3     1  UNL1        0.1111
      5 C          62.5118   88.2509   11.7696 C.3     1  UNL1        0.0939
      6 N          61.9306   89.6083   12.0333 N.3     1  UNL1       -0.2712
      7 C          63.1667   91.2021   10.3956 C.3     1  UNL1        0.0188
      8 C          62.7558   90.8374   11.7913 C.3     1  UNL1        0.0722
      9 C          60.5243   89.7368   12.5390 C.3     1  UNL1        0.0722
     10 C          59.4854   90.4207   11.7006 C.3     1  UNL1        0.0188
     11 C          59.8965   86.7307    9.9590 C.3     1  UNL1        0.1202
     12 C          59.8934   87.7155    8.8275 C.ar    1  UNL1       -0.0023
     13 C          60.4690   89.0865    9.0249 C.ar    1  UNL1       -0.0026
     14 C          60.4659   90.0712    7.8935 C.ar    1  UNL1       -0.0003
     15 C          59.8872   89.6849    6.5646 C.ar    1  UNL1       -0.0000
     16 C          59.3116   88.3139    6.3672 C.ar    1  UNL1       -0.0003
     17 C          59.3147   87.3292    7.4987 C.ar    1  UNL1       -0.0026
     18 C          59.8841   90.6697    5.4331 C.ar    1  UNL1       -0.0000
     19 C          61.1534   90.9610    4.6888 C.ar    1  UNL1       -0.0001
     20 C          61.1503   91.9458    3.5573 C.ar    1  UNL1        0.0039
     21 C          59.8778   92.6393    3.1702 C.ar    1  UNL1        0.0714
     22 C          58.6085   92.3480    3.9145 C.ar    1  UNL1        0.0039
     23 C          58.6116   91.3632    5.0459 C.ar    1  UNL1       -0.0001
     24 C          59.8747   93.6241    2.0387 C.3     1  UNL1        0.4186
     25 F          59.8716   94.6088    0.9073 F       1  UNL1       -0.1659
     26 F          59.6359   92.5067    1.0669 F       1  UNL1       -0.1659
     27 F          60.1135   94.7414    3.0106 F       1  UNL1       -0.1659
     28 C          63.3270   84.8612   10.6568 C.3     1  UNL1        0.1934
     29 N          63.3706   83.6932   11.5969 N.ar    1  UNL1       -0.2972
     30 C          63.0011   82.3236   11.1090 C.ar    1  UNL1        0.0894
     31 C          63.0448   81.1555   12.0490 C.ar    1  UNL1        0.1095
     32 BR         62.6753   79.7861   11.5613 Br      1  UNL1       -0.0424
     33 C          63.4579   81.3570   13.4769 C.ar    1  UNL1        0.2886
     34 O          63.5015   80.1889   14.4170 O.2     1  UNL1       -0.2645
     35 N          63.8273   82.7265   13.9647 N.ar    1  UNL1       -0.1840
     36 C          63.7837   83.8946   13.0247 C.ar    1  UNL1        0.1751
     37 S          64.1532   85.2640   13.5125 S.3     1  UNL1       -0.0724
     38 C          64.0477   85.5942   14.9719 C.3     1  UNL1        0.0913
     39 C          63.8845   87.0199   15.4085 C.ar    1  UNL1       -0.0108
     40 C          63.1977   87.3334   16.7046 C.ar    1  UNL1       -0.0011
     41 C          63.0345   88.7592   17.1413 C.ar    1  UNL1        0.0293
     42 C          63.5581   89.8714   16.2818 C.ar    1  UNL1        0.1401
     43 F          63.3949   91.2971   16.7183 F       1  UNL1       -0.2042
     44 C          64.2449   89.5578   14.9856 C.ar    1  UNL1        0.0293
     45 C          64.4081   88.1321   14.5490 C.ar    1  UNL1       -0.0011
@<TRIPOS>BOND
     1     7     8    1
     2     8     6    1
     3     6     9    1
     4     9    10    1
     5     6     5    1
     6     5     4    1
     7     4     1    1
     8     1    11    1
     9    11    12    1
    10    12    13   ar
    11    13    14   ar
    12    14    15   ar
    13    15    18    1
    14    18    19   ar
    15    19    20   ar
    16    20    21   ar
    17    21    24    1
    18    24    25    1
    19    24    26    1
    20    24    27    1
    21    21    22   ar
    22    22    23   ar
    23    15    16   ar
    24    16    17   ar
    25     1     2   am
    26     2     3    2
    27     2    28    1
    28    28    29    1
    29    29    30   ar
    30    30    31   ar
    31    31    32    1
    32    31    33   ar
    33    33    34    2
    34    33    35   ar
    35    35    36   ar
    36    36    37    1
    37    37    38    1
    38    38    39    1
    39    39    40   ar
    40    40    41   ar
    41    41    42   ar
    42    42    43    1
    43    42    44   ar
    44    44    45   ar
    45    17    12   ar
    46    36    29   ar
    47    45    39   ar
    48    23    18   ar
@<TRIPOS>MOLECULE
*****
 45 48 0 0 0
SMALL
GASTEIGER

@<TRIPOS>ATOM
      1 N          61.7522   87.2841   11.6390 N.am    1  UNL1       -0.2724
      2 C          62.2573   88.4747   12.3988 C.2     1  UNL1        0.2491
      3 O          61.4438   89.7340   12.4468 O.2     1  UNL1       -0.2727
      4 C          62.5658   86.0247   11.5910 C.3     1  UNL1        0.1111
      5 C          62.1791   84.9172   10.6562 C.3     1  UNL1        0.0939
      6 N          63.0819   84.5481    9.5167 N.3     1  UNL1       -0.2712
      7 C          62.4073   84.8471    7.0256 C.3     1  UNL1        0.0188
      8 C          63.0789   85.3690    8.2611 C.3     1  UNL1        0.0722
      9 C          63.9879   83.3583    9.6326 C.3     1  UNL1        0.0722
     10 C          64.5758   82.9899   10.9626 C.3     1  UNL1        0.0188
     11 C          60.4336   87.3527   10.9273 C.3     1  UNL1        0.1202
     12 C          60.2986   88.1681    9.6755 C.ar    1  UNL1       -0.0023
     13 C          59.5391   87.6220    8.5029 C.ar    1  UNL1       -0.0026
     14 C          59.4041   88.4374    7.2512 C.ar    1  UNL1       -0.0003
     15 C          60.0285   89.7989    7.1720 C.ar    1  UNL1       -0.0000
     16 C          60.7880   90.3451    8.3446 C.ar    1  UNL1       -0.0003
     17 C          60.9230   89.5297    9.5963 C.ar    1  UNL1       -0.0026
     18 C          59.8935   90.6143    5.9202 C.ar    1  UNL1       -0.0000
     19 C          61.1086   90.9431    5.1046 C.ar    1  UNL1       -0.0001
     20 C          60.9735   91.7585    3.8528 C.ar    1  UNL1        0.0039
     21 C          59.6233   92.2451    3.4167 C.ar    1  UNL1        0.0714
     22 C          58.4081   91.9162    4.2324 C.ar    1  UNL1        0.0039
     23 C          58.5432   91.1008    5.4841 C.ar    1  UNL1       -0.0001
     24 C          59.4882   93.0604    2.1649 C.3     1  UNL1        0.4186
     25 F          59.3531   93.8758    0.9132 F       1  UNL1       -0.1659
     26 F          58.2614   92.2827    1.7908 F       1  UNL1       -0.1659
     27 F          60.7150   93.8381    2.5391 F       1  UNL1       -0.1659
     28 C          63.5759   88.4060   13.1105 C.3     1  UNL1        0.1934
     29 N          64.0225   89.5483   13.9741 N.ar    1  UNL1       -0.2972
     30 C          64.8910   90.6280   13.3995 C.ar    1  UNL1        0.0894
     31 C          65.3376   91.7703   14.2630 C.ar    1  UNL1        0.1095
     32 BR         66.2061   92.8499   13.6886 Br      1  UNL1       -0.0424
     33 C          64.9156   91.8330   15.7012 C.ar    1  UNL1        0.2886
     34 O          65.3622   92.9753   16.5647 O.2     1  UNL1       -0.2645
     35 N          64.0471   90.7533   16.2757 N.ar    1  UNL1       -0.1840
     36 C          63.6006   89.6110   15.4121 C.ar    1  UNL1        0.1751
     37 S          62.7321   88.5314   15.9866 S.3     1  UNL1       -0.0724
     38 C          63.3539   87.3763   16.7141 C.3     1  UNL1        0.0913
     39 C          63.5198   86.0558   16.0222 C.ar    1  UNL1       -0.0108
     40 C          64.7113   85.8139   15.1438 C.ar    1  UNL1       -0.0011
     41 C          64.8773   84.4934   14.4518 C.ar    1  UNL1        0.0293
     42 C          63.8517   83.4149   14.6382 C.ar    1  UNL1        0.1401
     43 F          64.0176   82.0944   13.9463 F       1  UNL1       -0.2042
     44 C          62.6601   83.6568   15.5167 C.ar    1  UNL1        0.0293
     45 C          62.4941   84.9773   16.2086 C.ar    1  UNL1       -0.0011
@<TRIPOS>BOND
     1     7     8    1
     2     8     6    1
     3     6     9    1
     4     9    10    1
     5     6     5    1
     6     5     4    1
     7     4     1    1
     8     1    11    1
     9    11    12    1
    10    12    13   ar
    11    13    14   ar
    12    14    15   ar
    13    15    18    1
    14    18    19   ar
    15    19    20   ar
    16    20    21   ar
    17    21    24    1
    18    24    25    1
    19    24    26    1
    20    24    27    1
    21    21    22   ar
    22    22    23   ar
    23    15    16   ar
    24    16    17   ar
    25     1     2   am
    26     2     3    2
    27     2    28    1
    28    28    29    1
    29    29    30   ar
    30    30    31   ar
    31    31    32    1
    32    31    33   ar
    33    33    34    2
    34    33    35   ar
    35    35    36   ar
    36    36    37    1
    37    37    38    1
    38    38    39    1
    39    39    40   ar
    40    40    41   ar
    41    41    42   ar
    42    42    43    1
    43    42    44   ar
    44    44    45   ar
    45    17    12   ar
    46    36    29   ar
    47    45    39   ar
    48    23    18   ar
@<TRIPOS>MOLECULE
*****
 45 48 0 0 0
SMALL
GASTEIGER

@<TRIPOS>ATOM
      1 N          60.7954   87.7350   11.2426 N.am    1  UNL1       -0.2724
      2 C          60.4557   88.8619   12.1725 C.2     1  UNL1        0.2491
      3 O          59.2254   89.6861   11.9341 O.2     1  UNL1       -0.2727
      4 C          62.0258   86.9108   11.4811 C.3     1  UNL1        0.1111
      5 C          62.0236   85.4474   11.1521 C.3     1  UNL1        0.0939
      6 N          62.7975   84.9432    9.9702 N.3     1  UNL1       -0.2712
      7 C          64.2994   83.3706   11.3919 C.3     1  UNL1        0.0188
      8 C          63.6270   83.6993   10.0920 C.3     1  UNL1        0.0722
      9 C          62.7419   85.6829    8.6664 C.3     1  UNL1        0.0722
     10 C          62.7233   84.9230    7.3732 C.3     1  UNL1        0.0188
     11 C          59.9046   87.4322   10.0744 C.3     1  UNL1        0.1202
     12 C          59.9314   88.3153    8.8621 C.ar    1  UNL1       -0.0023
     13 C          59.1286   87.9487    7.6492 C.ar    1  UNL1       -0.0026
     14 C          59.1554   88.8318    6.4371 C.ar    1  UNL1       -0.0003
     15 C          59.9850   90.0815    6.4378 C.ar    1  UNL1       -0.0000
     16 C          60.7878   90.4481    7.6506 C.ar    1  UNL1       -0.0003
     17 C          60.7610   89.5651    8.8628 C.ar    1  UNL1       -0.0026
     18 C          60.0118   90.9646    5.2255 C.ar    1  UNL1       -0.0000
     19 C          58.7412   91.5780    4.7162 C.ar    1  UNL1       -0.0001
     20 C          58.7680   92.4611    3.5040 C.ar    1  UNL1        0.0039
     21 C          60.0654   92.7308    2.8011 C.ar    1  UNL1        0.0714
     22 C          61.3360   92.1174    3.3104 C.ar    1  UNL1        0.0039
     23 C          61.3092   91.2343    4.5226 C.ar    1  UNL1       -0.0001
     24 C          60.0922   93.6138    1.5889 C.3     1  UNL1        0.4186
     25 F          60.1190   94.4969    0.3767 F       1  UNL1       -0.1659
     26 F          58.7711   93.0539    1.1517 F       1  UNL1       -0.1659
     27 F          61.4133   94.1737    2.0260 F       1  UNL1       -0.1659
     28 C          61.3465   89.1647   13.3408 C.3     1  UNL1        0.1934
     29 N          62.5209   90.0823   13.1706 N.ar    1  UNL1       -0.2972
     30 C          62.9009   90.5683   11.8033 C.ar    1  UNL1        0.0894
     31 C          64.0752   91.4859   11.6330 C.ar    1  UNL1        0.1095
     32 BR         64.4553   91.9719   10.2658 Br      1  UNL1       -0.0424
     33 C          64.8695   91.9175   12.8301 C.ar    1  UNL1        0.2886
     34 O          66.0438   92.8351   12.6599 O.2     1  UNL1       -0.2645
     35 N          64.4894   91.4315   14.1973 N.ar    1  UNL1       -0.1840
     36 C          63.3151   90.5139   14.3676 C.ar    1  UNL1        0.1751
     37 S          62.9350   90.0279   15.7348 S.3     1  UNL1       -0.0724
     38 C          63.7701   88.9870   16.4198 C.3     1  UNL1        0.0913
     39 C          63.6597   87.5482   16.0103 C.ar    1  UNL1       -0.0108
     40 C          64.2747   87.0856   14.7228 C.ar    1  UNL1       -0.0011
     41 C          64.1644   85.6467   14.3133 C.ar    1  UNL1        0.0293
     42 C          63.4390   84.6706   15.1914 C.ar    1  UNL1        0.1401
     43 F          63.3286   83.2318   14.7819 F       1  UNL1       -0.2042
     44 C          62.8240   85.1333   16.4789 C.ar    1  UNL1        0.0293
     45 C          62.9344   86.5720   16.8884 C.ar    1  UNL1       -0.0011
@<TRIPOS>BOND
     1     7     8    1
     2     8     6    1
     3     6     9    1
     4     9    10    1
     5     6     5    1
     6     5     4    1
     7     4     1    1
     8     1    11    1
     9    11    12    1
    10    12    13   ar
    11    13    14   ar
    12    14    15   ar
    13    15    18    1
    14    18    19   ar
    15    19    20   ar
    16    20    21   ar
    17    21    24    1
    18    24    25    1
    19    24    26    1
    20    24    27    1
    21    21    22   ar
    22    22    23   ar
    23    15    16   ar
    24    16    17   ar
    25     1     2   am
    26     2     3    2
    27     2    28    1
    28    28    29    1
    29    29    30   ar
    30    30    31   ar
    31    31    32    1
    32    31    33   ar
    33    33    34    2
    34    33    35   ar
    35    35    36   ar
    36    36    37    1
    37    37    38    1
    38    38    39    1
    39    39    40   ar
    40    40    41   ar
    41    41    42   ar
    42    42    43    1
    43    42    44   ar
    44    44    45   ar
    45    17    12   ar
    46    36    29   ar
    47    45    39   ar
    48    23    18   ar
@<TRIPOS>MOLECULE
*****
 45 48 0 0 0
SMALL
GASTEIGER

@<TRIPOS>ATOM
      1 N          64.4432   89.7742   14.4128 N.am    1  UNL1       -0.2724
      2 C          63.0642   90.2513   14.0653 C.2     1  UNL1        0.2491
      3 O          61.8653   89.4641   14.5047 O.2     1  UNL1       -0.2727
      4 C          65.6421   90.5615   13.9734 C.3     1  UNL1        0.1111
      5 C          66.8362   90.6746   14.8740 C.3     1  UNL1        0.0939
      6 N          67.1887   91.9962   15.4897 N.3     1  UNL1       -0.2712
      7 C          64.9867   92.2986   16.8350 C.3     1  UNL1        0.0188
      8 C          66.1070   92.8850   16.0283 C.3     1  UNL1        0.0722
      9 C          68.6228   92.4290   15.5669 C.3     1  UNL1        0.0722
     10 C          68.9610   93.8396   15.9489 C.3     1  UNL1        0.0188
     11 C          64.6234   88.5099   15.1996 C.3     1  UNL1        0.1202
     12 C          64.3472   87.1820   14.5589 C.ar    1  UNL1       -0.0023
     13 C          63.5878   87.1160   13.2670 C.ar    1  UNL1       -0.0026
     14 C          63.3116   85.7882   12.6264 C.ar    1  UNL1       -0.0003
     15 C          63.7949   84.5263   13.2776 C.ar    1  UNL1       -0.0000
     16 C          64.5543   84.5922   14.5694 C.ar    1  UNL1       -0.0003
     17 C          64.8305   85.9201   15.2101 C.ar    1  UNL1       -0.0026
     18 C          63.5187   83.1983   12.6369 C.ar    1  UNL1       -0.0000
     19 C          63.8521   82.9795   11.1909 C.ar    1  UNL1       -0.0001
     20 C          63.5759   81.6515   10.5502 C.ar    1  UNL1        0.0039
     21 C          62.9663   80.5425   11.3556 C.ar    1  UNL1        0.0714
     22 C          62.6330   80.7615   12.8017 C.ar    1  UNL1        0.0039
     23 C          62.9092   82.0893   13.4423 C.ar    1  UNL1       -0.0001
     24 C          62.6902   79.2147   10.7150 C.3     1  UNL1        0.4186
     25 F          62.4140   77.8868   10.0744 F       1  UNL1       -0.1659
     26 F          62.8290   79.8401    9.3587 F       1  UNL1       -0.1659
     27 F          62.5513   78.5892   12.0712 F       1  UNL1       -0.1659
     28 C          62.8840   91.5157   13.2785 C.3     1  UNL1        0.1934
     29 N          63.9259   91.9351   12.2843 N.ar    1  UNL1       -0.2972
     30 C          65.0825   92.7838   12.7227 C.ar    1  UNL1        0.0894
     31 C          66.1243   93.2033   11.7285 C.ar    1  UNL1        0.1095
     32 BR         67.2808   94.0520   12.1669 Br      1  UNL1       -0.0424
     33 C          66.0096   92.7741   10.2957 C.ar    1  UNL1        0.2886
     34 O          67.0515   93.1936    9.3015 O.2     1  UNL1       -0.2645
     35 N          64.8531   91.9254    9.8573 N.ar    1  UNL1       -0.1840
     36 C          63.8113   91.5060   10.8516 C.ar    1  UNL1        0.1751
     37 S          62.6548   90.6573   10.4132 S.3     1  UNL1       -0.0724
     38 C          62.6975   89.1710   10.6113 C.3     1  UNL1        0.0913
     39 C          61.8602   88.2749    9.7477 C.ar    1  UNL1       -0.0108
     40 C          60.5609   88.7731    9.1879 C.ar    1  UNL1       -0.0011
     41 C          59.7235   87.8769    8.3243 C.ar    1  UNL1        0.0293
     42 C          60.1856   86.4826    8.0205 C.ar    1  UNL1        0.1401
     43 F          59.3483   85.5864    7.1570 F       1  UNL1       -0.2042
     44 C          61.4850   85.9844    8.5804 C.ar    1  UNL1        0.0293
     45 C          62.3223   86.8805    9.4440 C.ar    1  UNL1       -0.0011
@<TRIPOS>BOND
     1     7     8    1
     2     8     6    1
     3     6     9    1
     4     9    10    1
     5     6     5    1
     6     5     4    1
     7     4     1    1
     8     1    11    1
     9    11    12    1
    10    12    13   ar
    11    13    14   ar
    12    14    15   ar
    13    15    18    1
    14    18    19   ar
    15    19    20   ar
    16    20    21   ar
    17    21    24    1
    18    24    25    1
    19    24    26    1
    20    24    27    1
    21    21    22   ar
    22    22    23   ar
    23    15    16   ar
    24    16    17   ar
    25     1     2   am
    26     2     3    2
    27     2    28    1
    28    28    29    1
    29    29    30   ar
    30    30    31   ar
    31    31    32    1
    32    31    33   ar
    33    33    34    2
    34    33    35   ar
    35    35    36   ar
    36    36    37    1
    37    37    38    1
    38    38    39    1
    39    39    40   ar
    40    40    41   ar
    41    41    42   ar
    42    42    43    1
    43    42    44   ar
    44    44    45   ar
    45    17    12   ar
    46    36    29   ar
    47    45    39   ar
    48    23    18   ar
@<TRIPOS>MOLECULE
*****
 45 48 0 0 0
SMALL
GASTEIGER

@<TRIPOS>ATOM
      1 N          63.5449   89.9335   12.4462 N.am    1  UNL1       -0.2724
      2 C          64.5989   90.5357   13.3274 C.2     1  UNL1        0.2491
      3 O          64.6485   90.1843   14.7848 O.2     1  UNL1       -0.2727
      4 C          63.4953   90.2850   10.9887 C.3     1  UNL1        0.1111
      5 C          62.2885   90.9739   10.4240 C.3     1  UNL1        0.0939
      6 N          61.0036   90.2184   10.2563 N.3     1  UNL1       -0.2712
      7 C          59.1842   89.5694   11.9937 C.3     1  UNL1        0.0188
      8 C          59.8050   90.5847   11.0806 C.3     1  UNL1        0.0722
      9 C          60.9171   89.0967    9.2642 C.3     1  UNL1        0.0722
     10 C          59.8332   89.0944    8.2273 C.3     1  UNL1        0.0188
     11 C          62.5406   88.9800   13.0224 C.3     1  UNL1        0.1202
     12 C          62.6092   87.5211   12.6801 C.ar    1  UNL1       -0.0023
     13 C          63.4767   86.6014   13.4873 C.ar    1  UNL1       -0.0026
     14 C          63.5453   85.1426   13.1450 C.ar    1  UNL1       -0.0003
     15 C          62.7464   84.6035   11.9956 C.ar    1  UNL1       -0.0000
     16 C          61.8789   85.5232   11.1884 C.ar    1  UNL1       -0.0003
     17 C          61.8103   86.9820   11.5307 C.ar    1  UNL1       -0.0026
     18 C          62.8150   83.1447   11.6534 C.ar    1  UNL1       -0.0000
     19 C          62.3404   82.1196   12.6403 C.ar    1  UNL1       -0.0001
     20 C          62.4091   80.6608   12.2981 C.ar    1  UNL1        0.0039
     21 C          62.9523   80.2270   10.9689 C.ar    1  UNL1        0.0714
     22 C          63.4268   81.2521    9.9819 C.ar    1  UNL1        0.0039
     23 C          63.3582   82.7109   10.3242 C.ar    1  UNL1       -0.0001
     24 C          63.0209   78.7682   10.6266 C.3     1  UNL1        0.4186
     25 F          63.0895   77.3094   10.2844 F       1  UNL1       -0.1659
     26 F          63.3185   79.1173    9.1985 F       1  UNL1       -0.1659
     27 F          62.7233   78.4191   12.0547 F       1  UNL1       -0.1659
     28 C          65.6032   91.4893   12.7512 C.3     1  UNL1        0.1934
     29 N          66.4650   92.3120   13.6625 N.ar    1  UNL1       -0.2972
     30 C          67.2570   91.6466   14.7488 C.ar    1  UNL1        0.0894
     31 C          68.1188   92.4693   15.6601 C.ar    1  UNL1        0.1095
     32 BR         68.9108   91.8039   16.7463 Br      1  UNL1       -0.0424
     33 C          68.1887   93.9574   15.4850 C.ar    1  UNL1        0.2886
     34 O          69.0505   94.7801   16.3963 O.2     1  UNL1       -0.2645
     35 N          67.3967   94.6228   14.3988 N.ar    1  UNL1       -0.1840
     36 C          66.5349   93.8001   13.4875 C.ar    1  UNL1        0.1751
     37 S          65.7429   94.4655   12.4012 S.3     1  UNL1       -0.0724
     38 C          66.4467   95.0677   11.2213 C.3     1  UNL1        0.0913
     39 C          67.2235   94.1915   10.2839 C.ar    1  UNL1       -0.0108
     40 C          67.6022   92.8005   10.6979 C.ar    1  UNL1       -0.0011
     41 C          68.3790   91.9242    9.7605 C.ar    1  UNL1        0.0293
     42 C          68.7771   92.4390    8.4091 C.ar    1  UNL1        0.1401
     43 F          69.5539   91.5628    7.4716 F       1  UNL1       -0.2042
     44 C          68.3984   93.8302    7.9951 C.ar    1  UNL1        0.0293
     45 C          67.6217   94.7064    8.9325 C.ar    1  UNL1       -0.0011
@<TRIPOS>BOND
     1     7     8    1
     2     8     6    1
     3     6     9    1
     4     9    10    1
     5     6     5    1
     6     5     4    1
     7     4     1    1
     8     1    11    1
     9    11    12    1
    10    12    13   ar
    11    13    14   ar
    12    14    15   ar
    13    15    18    1
    14    18    19   ar
    15    19    20   ar
    16    20    21   ar
    17    21    24    1
    18    24    25    1
    19    24    26    1
    20    24    27    1
    21    21    22   ar
    22    22    23   ar
    23    15    16   ar
    24    16    17   ar
    25     1     2   am
    26     2     3    2
    27     2    28    1
    28    28    29    1
    29    29    30   ar
    30    30    31   ar
    31    31    32    1
    32    31    33   ar
    33    33    34    2
    34    33    35   ar
    35    35    36   ar
    36    36    37    1
    37    37    38    1
    38    38    39    1
    39    39    40   ar
    40    40    41   ar
    41    41    42   ar
    42    42    43    1
    43    42    44   ar
    44    44    45   ar
    45    17    12   ar
    46    36    29   ar
    47    45    39   ar
    48    23    18   ar
@<TRIPOS>MOLECULE
*****
 45 48 0 0 0
SMALL
GASTEIGER

@<TRIPOS>ATOM
      1 N          61.4706   86.8563   11.5476 N.am    1  UNL1       -0.2724
      2 C          62.2638   85.6375   11.9153 C.2     1  UNL1        0.2491
      3 O          61.8883   84.2997   11.3504 O.2     1  UNL1       -0.2727
      4 C          61.8461   88.1942   12.1125 C.3     1  UNL1        0.1111
      5 C          63.0809   88.8936   11.6268 C.3     1  UNL1        0.0939
      6 N          63.3250   90.3270   11.9953 N.3     1  UNL1       -0.2712
      7 C          64.9449   90.8199   13.9658 C.3     1  UNL1        0.0188
      8 C          63.5488   90.7051   13.4295 C.3     1  UNL1        0.0722
      9 C          63.3452   91.3823   10.9295 C.3     1  UNL1        0.0722
     10 C          64.6370   92.0478   10.5573 C.3     1  UNL1        0.0188
     11 C          60.3019   86.7373   10.6149 C.3     1  UNL1        0.1202
     12 C          60.1845   87.6599    9.4380 C.ar    1  UNL1       -0.0023
     13 C          59.7209   87.1306    8.1133 C.ar    1  UNL1       -0.0026
     14 C          59.6035   88.0532    6.9365 C.ar    1  UNL1       -0.0003
     15 C          59.9498   89.5052    7.0844 C.ar    1  UNL1       -0.0000
     16 C          60.4135   90.0345    8.4090 C.ar    1  UNL1       -0.0003
     17 C          60.5308   89.1119    9.5858 C.ar    1  UNL1       -0.0026
     18 C          59.8324   90.4279    5.9075 C.ar    1  UNL1       -0.0000
     19 C          58.4890   90.9556    5.4993 C.ar    1  UNL1       -0.0001
     20 C          58.3717   91.8783    4.3224 C.ar    1  UNL1        0.0039
     21 C          59.5977   92.2731    3.5537 C.ar    1  UNL1        0.0714
     22 C          60.9412   91.7453    3.9620 C.ar    1  UNL1        0.0039
     23 C          61.0585   90.8227    5.1388 C.ar    1  UNL1       -0.0001
     24 C          59.4804   93.1957    2.3769 C.3     1  UNL1        0.4186
     25 F          59.3631   94.1183    1.2000 F       1  UNL1       -0.1659
     26 F          60.5529   94.0703    2.9556 F       1  UNL1       -0.1659
     27 F          58.4080   92.3212    1.7982 F       1  UNL1       -0.1659
     28 C          63.4325   85.7566   12.8481 C.3     1  UNL1        0.1934
     29 N          63.2033   85.9984   14.3106 N.ar    1  UNL1       -0.2972
     30 C          63.3831   87.3743   14.8805 C.ar    1  UNL1        0.0894
     31 C          63.1538   87.6162   16.3430 C.ar    1  UNL1        0.1095
     32 BR         63.3336   88.9920   16.9129 Br      1  UNL1       -0.0424
     33 C          62.7447   86.4822   17.2356 C.ar    1  UNL1        0.2886
     34 O          62.5155   86.7240   18.6981 O.2     1  UNL1       -0.2645
     35 N          62.5649   85.1064   16.6657 N.ar    1  UNL1       -0.1840
     36 C          62.7942   84.8645   15.2032 C.ar    1  UNL1        0.1751
     37 S          62.6144   83.4887   14.6333 S.3     1  UNL1       -0.0724
     38 C          63.7756   82.7819   13.9991 C.3     1  UNL1        0.0913
     39 C          63.5574   81.9080   12.7997 C.ar    1  UNL1       -0.0108
     40 C          62.8469   80.5953   12.9476 C.ar    1  UNL1       -0.0011
     41 C          62.6287   79.7213   11.7481 C.ar    1  UNL1        0.0293
     42 C          63.1211   80.1601   10.4009 C.ar    1  UNL1        0.1401
     43 F          62.9029   79.2861    9.2015 F       1  UNL1       -0.2042
     44 C          63.8316   81.4729   10.2531 C.ar    1  UNL1        0.0293
     45 C          64.0498   82.3468   11.4525 C.ar    1  UNL1       -0.0011
@<TRIPOS>BOND
     1     7     8    1
     2     8     6    1
     3     6     9    1
     4     9    10    1
     5     6     5    1
     6     5     4    1
     7     4     1    1
     8     1    11    1
     9    11    12    1
    10    12    13   ar
    11    13    14   ar
    12    14    15   ar
    13    15    18    1
    14    18    19   ar
    15    19    20   ar
    16    20    21   ar
    17    21    24    1
    18    24    25    1
    19    24    26    1
    20    24    27    1
    21    21    22   ar
    22    22    23   ar
    23    15    16   ar
    24    16    17   ar
    25     1     2   am
    26     2     3    2
    27     2    28    1
    28    28    29    1
    29    29    30   ar
    30    30    31   ar
    31    31    32    1
    32    31    33   ar
    33    33    34    2
    34    33    35   ar
    35    35    36   ar
    36    36    37    1
    37    37    38    1
    38    38    39    1
    39    39    40   ar
    40    40    41   ar
    41    41    42   ar
    42    42    43    1
    43    42    44   ar
    44    44    45   ar
    45    17    12   ar
    46    36    29   ar
    47    45    39   ar
    48    23    18   ar
@<TRIPOS>MOLECULE
*****
 45 48 0 0 0
SMALL
GASTEIGER

@<TRIPOS>ATOM
      1 N          62.1450   89.3588   10.2376 N.am    1  UNL1       -0.2724
      2 C          62.8219   89.4356   11.5740 C.2     1  UNL1        0.2491
      3 O          63.7649   88.3500   12.0005 O.2     1  UNL1       -0.2727
      4 C          61.2019   90.4445    9.8111 C.3     1  UNL1        0.1111
      5 C          59.8022   90.1015    9.3951 C.3     1  UNL1        0.0939
      6 N          59.5690   89.1243    8.2812 N.3     1  UNL1       -0.2712
      7 C          59.4372   86.5908    7.7208 C.3     1  UNL1        0.0188
      8 C          59.0441   87.7523    8.5847 C.3     1  UNL1        0.0722
      9 C          59.8608   89.5191    6.8638 C.3     1  UNL1        0.0722
     10 C          58.7998   90.1824    6.0365 C.3     1  UNL1        0.0188
     11 C          62.4111   88.1964    9.3278 C.3     1  UNL1        0.1202
     12 C          62.4501   86.8033    9.8826 C.ar    1  UNL1       -0.0023
     13 C          61.8256   86.5085   11.2141 C.ar    1  UNL1       -0.0026
     14 C          61.8646   85.1154   11.7688 C.ar    1  UNL1       -0.0003
     15 C          62.5281   84.0171   10.9920 C.ar    1  UNL1       -0.0000
     16 C          63.1525   84.3118    9.6604 C.ar    1  UNL1       -0.0003
     17 C          63.1135   85.7049    9.1057 C.ar    1  UNL1       -0.0026
     18 C          62.5670   82.6239   11.5468 C.ar    1  UNL1       -0.0000
     19 C          63.0102   81.4833   10.6793 C.ar    1  UNL1       -0.0001
     20 C          63.0492   80.0902   11.2341 C.ar    1  UNL1        0.0039
     21 C          62.6449   79.8378   12.6564 C.ar    1  UNL1        0.0714
     22 C          62.2017   80.9785   13.5238 C.ar    1  UNL1        0.0039
     23 C          62.1628   82.3715   12.9690 C.ar    1  UNL1       -0.0001
     24 C          62.6839   78.4447   13.2112 C.3     1  UNL1        0.4186
     25 F          62.7228   77.0517   13.7660 F       1  UNL1       -0.1659
     26 F          62.6322   78.9981   14.6044 F       1  UNL1       -0.1659
     27 F          62.7355   77.8913   11.8180 F       1  UNL1       -0.1659
     28 C          62.5556   90.5981   12.4839 C.3     1  UNL1        0.1934
     29 N          63.6925   91.2679   13.1972 N.ar    1  UNL1       -0.2972
     30 C          64.6554   92.1273   12.4327 C.ar    1  UNL1        0.0894
     31 C          65.7923   92.7971   13.1460 C.ar    1  UNL1        0.1095
     32 BR         66.7552   93.6565   12.3816 Br      1  UNL1       -0.0424
     33 C          65.9664   92.6075   14.6238 C.ar    1  UNL1        0.2886
     34 O          67.1033   93.2773   15.3371 O.2     1  UNL1       -0.2645
     35 N          65.0035   91.7481   15.3882 N.ar    1  UNL1       -0.1840
     36 C          63.8666   91.0783   14.6749 C.ar    1  UNL1        0.1751
     37 S          62.9038   90.2190   15.4393 S.3     1  UNL1       -0.0724
     38 C          63.4087   89.2928   16.5059 C.3     1  UNL1        0.0913
     39 C          63.5220   87.8227   16.2305 C.ar    1  UNL1       -0.0108
     40 C          64.3346   87.3382   15.0665 C.ar    1  UNL1       -0.0011
     41 C          64.4479   85.8680   14.7911 C.ar    1  UNL1        0.0293
     42 C          63.7486   84.8824   15.6798 C.ar    1  UNL1        0.1401
     43 F          63.8619   83.4123   15.4044 F       1  UNL1       -0.2042
     44 C          62.9360   85.3670   16.8438 C.ar    1  UNL1        0.0293
     45 C          62.8227   86.8372   17.1191 C.ar    1  UNL1       -0.0011
@<TRIPOS>BOND
     1     7     8    1
     2     8     6    1
     3     6     9    1
     4     9    10    1
     5     6     5    1
     6     5     4    1
     7     4     1    1
     8     1    11    1
     9    11    12    1
    10    12    13   ar
    11    13    14   ar
    12    14    15   ar
    13    15    18    1
    14    18    19   ar
    15    19    20   ar
    16    20    21   ar
    17    21    24    1
    18    24    25    1
    19    24    26    1
    20    24    27    1
    21    21    22   ar
    22    22    23   ar
    23    15    16   ar
    24    16    17   ar
    25     1     2   am
    26     2     3    2
    27     2    28    1
    28    28    29    1
    29    29    30   ar
    30    30    31   ar
    31    31    32    1
    32    31    33   ar
    33    33    34    2
    34    33    35   ar
    35    35    36   ar
    36    36    37    1
    37    37    38    1
    38    38    39    1
    39    39    40   ar
    40    40    41   ar
    41    41    42   ar
    42    42    43    1
    43    42    44   ar
    44    44    45   ar
    45    17    12   ar
    46    36    29   ar
    47    45    39   ar
    48    23    18   ar
