@<TRIPOS>MOLECULE
*****
 30 33 0 0 0
SMALL
GASTEIGER

@<TRIPOS>ATOM
      1 N          62.6814   88.8051   10.8118 N.am    1  UNL1       -0.2778
      2 C          62.2324   89.5109   12.0568 C.2     1  UNL1        0.2541
      3 O          60.7708   89.6025   12.3814 O.2     1  UNL1       -0.2696
      4 H          63.6407   88.7449   10.5988 H       1  UNL1        0.1553
      5 C          63.2450   90.1251   12.9773 C.ar    1  UNL1        0.1103
      6 C          63.4501   89.7758   14.4215 C.ar    1  UNL1        0.1281
      7 N          64.5623   90.6313   14.9519 N.ar    1  UNL1       -0.1619
      8 N          65.0445   91.5093   13.8355 N.ar    1  UNL1       -0.2104
      9 C          66.1198   92.5533   13.7725 C.ar    1  UNL1        0.1049
     10 C          66.3809   93.2844   12.4891 C.ar    1  UNL1        0.0546
     11 C          65.5668   92.9716   11.2686 C.ar    1  UNL1        0.1286
     12 N          65.8280   93.7028    9.9852 N.pl3   1  UNL1       -0.3425
     13 N          64.4916   91.9276   11.3316 N.ar    1  UNL1       -0.2121
     14 C          64.2304   91.1964   12.6151 C.ar    1  UNL1        0.1710
     15 H          66.5337   94.3880    9.9438 H       1  UNL1        0.1437
     16 H          65.2937   93.4975    9.1842 H       1  UNL1        0.1437
     17 C          58.7601   88.2366    7.3216 C.3     1  UNL1        0.1538
     18 N          59.8664   87.9296    8.2870 N.ar    1  UNL1       -0.2461
     19 C          60.6785   88.9364    9.0465 C.ar    1  UNL1        0.1113
     20 C          61.6688   88.1908    9.8912 C.ar    1  UNL1        0.0891
     21 C          61.4688   86.7233    9.6537 C.ar    1  UNL1        0.1166
     22 N          60.3548   86.5619    8.6623 N.ar    1  UNL1       -0.1679
     23 C          62.2462   85.6124   10.2951 C.ar    1  UNL1        0.0320
     24 C          62.1681   85.4013   11.7782 C.ar    1  UNL1        0.0138
     25 C          62.9455   84.2903   12.4196 C.ar    1  UNL1        0.0578
     26 CL         62.8674   84.0792   13.9026 Cl      1  UNL1       -0.0822
     27 C          63.8010   83.3904   11.5779 C.ar    1  UNL1        0.0123
     28 C          63.8791   83.6015   10.0949 C.ar    1  UNL1        0.0123
     29 C          63.1017   84.7125    9.4535 C.ar    1  UNL1        0.0592
     30 CL         63.1798   84.9236    7.9705 Cl      1  UNL1       -0.0822
@<TRIPOS>BOND
     1    17    18    1
     2    18    19   ar
     3    19    20   ar
     4    20     1    1
     5     1     2   am
     6     2     3    2
     7     2     5    1
     8     5     6   ar
     9     6     7   ar
    10     7     8   ar
    11     8     9   ar
    12     9    10   ar
    13    10    11   ar
    14    11    12    1
    15    11    13   ar
    16    13    14   ar
    17    20    21   ar
    18    21    23    1
    19    23    24   ar
    20    24    25   ar
    21    25    26    1
    22    25    27   ar
    23    27    28   ar
    24    28    29   ar
    25    29    30    1
    26    21    22   ar
    27    22    18   ar
    28    14     5   ar
    29    29    23   ar
    30    14     8   ar
    31     1     4    1
    32    12    15    1
    33    12    16    1
@<TRIPOS>MOLECULE
*****
 30 33 0 0 0
SMALL
GASTEIGER

@<TRIPOS>ATOM
      1 N          61.8989   86.3064   10.7167 N.am    1  UNL1       -0.2778
      2 C          62.7723   85.2957   10.0343 C.2     1  UNL1        0.2541
      3 O          63.1076   85.4537    8.5808 O.2     1  UNL1       -0.2696
      4 H          61.6788   86.2026   11.6707 H       1  UNL1        0.1553
      5 C          63.3103   84.1269   10.8053 C.ar    1  UNL1        0.1103
      6 C          64.0627   82.9631   10.2315 C.ar    1  UNL1        0.1281
      7 N          64.4077   82.0337   11.3572 N.ar    1  UNL1       -0.1619
      8 N          63.8685   82.6231   12.6268 N.ar    1  UNL1       -0.2104
      9 C          63.9075   82.1490   14.0493 C.ar    1  UNL1        0.1049
     10 C          63.2682   82.9685   15.1309 C.ar    1  UNL1        0.0546
     11 C          62.5899   84.2622   14.7898 C.ar    1  UNL1        0.1286
     12 N          61.9506   85.0817   15.8713 N.pl3   1  UNL1       -0.3425
     13 N          62.5509   84.7364   13.3672 N.ar    1  UNL1       -0.2121
     14 C          63.1902   83.9168   12.2857 C.ar    1  UNL1        0.1710
     15 H          61.9762   84.7706   16.8050 H       1  UNL1        0.1437
     16 H          61.5054   85.9308   15.6475 H       1  UNL1        0.1437
     17 C          59.2147   89.2040    7.2125 C.3     1  UNL1        0.1538
     18 N          60.1271   88.8070    8.3350 N.ar    1  UNL1       -0.2461
     19 C          60.3880   87.4070    8.8060 C.ar    1  UNL1        0.1113
     20 C          61.3609   87.4752    9.9457 C.ar    1  UNL1        0.0891
     21 C          61.7012   88.9173   10.1791 C.ar    1  UNL1        0.1166
     22 N          60.9387   89.7404    9.1836 N.ar    1  UNL1       -0.1679
     23 C          62.6394   89.4438   11.2244 C.ar    1  UNL1        0.0320
     24 C          62.9476   88.6196   12.4392 C.ar    1  UNL1        0.0138
     25 C          63.8857   89.1461   13.4845 C.ar    1  UNL1        0.0578
     26 CL         64.1939   88.3220   14.6992 Cl      1  UNL1       -0.0822
     27 C          64.5157   90.4969   13.3149 C.ar    1  UNL1        0.0123
     28 C          64.2074   91.3211   12.1002 C.ar    1  UNL1        0.0123
     29 C          63.2693   90.7945   11.0549 C.ar    1  UNL1        0.0592
     30 CL         62.9611   91.6188    9.8400 Cl      1  UNL1       -0.0822
@<TRIPOS>BOND
     1    17    18    1
     2    18    19   ar
     3    19    20   ar
     4    20     1    1
     5     1     2   am
     6     2     3    2
     7     2     5    1
     8     5     6   ar
     9     6     7   ar
    10     7     8   ar
    11     8     9   ar
    12     9    10   ar
    13    10    11   ar
    14    11    12    1
    15    11    13   ar
    16    13    14   ar
    17    20    21   ar
    18    21    23    1
    19    23    24   ar
    20    24    25   ar
    21    25    26    1
    22    25    27   ar
    23    27    28   ar
    24    28    29   ar
    25    29    30    1
    26    21    22   ar
    27    22    18   ar
    28    14     5   ar
    29    29    23   ar
    30    14     8   ar
    31     1     4    1
    32    12    15    1
    33    12    16    1
@<TRIPOS>MOLECULE
*****
 30 33 0 0 0
SMALL
GASTEIGER

@<TRIPOS>ATOM
      1 N          62.3485   89.0396   10.9727 N.am    1  UNL1       -0.2778
      2 C          62.9199   90.4077   10.7456 C.2     1  UNL1        0.2541
      3 O          62.6041   91.1523    9.4824 O.2     1  UNL1       -0.2696
      4 H          62.5558   88.5509   11.8018 H       1  UNL1        0.1553
      5 C          63.8072   91.0313   11.7819 C.ar    1  UNL1        0.1103
      6 C          64.9219   92.0003   11.5206 C.ar    1  UNL1        0.1281
      7 N          65.5391   92.3632   12.8387 N.ar    1  UNL1       -0.1619
      8 N          64.8059   91.6185   13.9147 N.ar    1  UNL1       -0.2104
      9 C          64.9745   91.5836   15.4047 C.ar    1  UNL1        0.1049
     10 C          64.0728   90.7254   16.2417 C.ar    1  UNL1        0.0546
     11 C          63.0024   89.9023   15.5886 C.ar    1  UNL1        0.1286
     12 N          62.1006   89.0441   16.4255 N.pl3   1  UNL1       -0.3425
     13 N          62.8337   89.9372   14.0984 N.ar    1  UNL1       -0.2121
     14 C          63.7354   90.7953   13.2615 C.ar    1  UNL1        0.1710
     15 H          62.2113   89.0212   17.4035 H       1  UNL1        0.1437
     16 H          61.3980   88.5039   15.9969 H       1  UNL1        0.1437
     17 C          58.8015   88.4264    7.1095 C.3     1  UNL1        0.1538
     18 N          59.8308   88.1341    8.1607 N.ar    1  UNL1       -0.2461
     19 C          60.5109   89.1462    9.0344 C.ar    1  UNL1        0.1113
     20 C          61.4612   88.4159    9.9364 C.ar    1  UNL1        0.0891
     21 C          61.3684   86.9525    9.6203 C.ar    1  UNL1        0.1166
     22 N          60.3608   86.7784    8.5229 N.ar    1  UNL1       -0.1679
     23 C          62.1466   85.8559   10.2850 C.ar    1  UNL1        0.0320
     24 C          62.0804   85.6854   11.7739 C.ar    1  UNL1        0.0138
     25 C          62.8586   84.5888   12.4385 C.ar    1  UNL1        0.0578
     26 CL         62.7925   84.4183   13.9273 Cl      1  UNL1       -0.0822
     27 C          63.7030   83.6625   11.6143 C.ar    1  UNL1        0.0123
     28 C          63.7691   83.8330   10.1255 C.ar    1  UNL1        0.0123
     29 C          62.9909   84.9297    9.4608 C.ar    1  UNL1        0.0592
     30 CL         63.0571   85.1001    7.9720 Cl      1  UNL1       -0.0822
@<TRIPOS>BOND
     1    17    18    1
     2    18    19   ar
     3    19    20   ar
     4    20     1    1
     5     1     2   am
     6     2     3    2
     7     2     5    1
     8     5     6   ar
     9     6     7   ar
    10     7     8   ar
    11     8     9   ar
    12     9    10   ar
    13    10    11   ar
    14    11    12    1
    15    11    13   ar
    16    13    14   ar
    17    20    21   ar
    18    21    23    1
    19    23    24   ar
    20    24    25   ar
    21    25    26    1
    22    25    27   ar
    23    27    28   ar
    24    28    29   ar
    25    29    30    1
    26    21    22   ar
    27    22    18   ar
    28    14     5   ar
    29    29    23   ar
    30    14     8   ar
    31     1     4    1
    32    12    15    1
    33    12    16    1
@<TRIPOS>MOLECULE
*****
 30 33 0 0 0
SMALL
GASTEIGER

@<TRIPOS>ATOM
      1 N          64.4599   91.4925   11.8367 N.am    1  UNL1       -0.2778
      2 C          63.3765   90.5974   12.3612 C.2     1  UNL1        0.2541
      3 O          63.2486   90.3598   13.8367 O.2     1  UNL1       -0.2696
      4 H          64.5438   91.6484   10.8683 H       1  UNL1        0.1553
      5 C          62.4209   89.9400   11.4100 C.ar    1  UNL1        0.1103
      6 C          61.5129   90.6435   10.4455 C.ar    1  UNL1        0.1281
      7 N          60.7364   89.6019    9.6958 N.ar    1  UNL1       -0.1619
      8 N          61.1645   88.2545   10.1970 N.ar    1  UNL1       -0.2104
      9 C          60.7409   86.8643    9.8255 C.ar    1  UNL1        0.1049
     10 C          61.3584   85.6831   10.5135 C.ar    1  UNL1        0.0546
     11 C          62.3995   85.8920   11.5730 C.ar    1  UNL1        0.1286
     12 N          63.0170   84.7107   12.2610 N.pl3   1  UNL1       -0.3425
     13 N          62.8232   87.2822   11.9445 N.ar    1  UNL1       -0.2121
     14 C          62.2056   88.4635   11.2565 C.ar    1  UNL1        0.1710
     15 H          62.7390   83.7983   12.0172 H       1  UNL1        0.1437
     16 H          63.7003   84.8479   12.9564 H       1  UNL1        0.1437
     17 C          67.0749   92.7795   16.2397 C.3     1  UNL1        0.1538
     18 N          66.6175   92.7415   14.8116 N.ar    1  UNL1       -0.2461
     19 C          65.5427   91.8566   14.2533 C.ar    1  UNL1        0.1113
     20 C          65.4155   92.1499   12.7878 C.ar    1  UNL1        0.0891
     21 C          66.4117   93.2162   12.4403 C.ar    1  UNL1        0.1166
     22 N          67.1546   93.5818   13.6911 N.ar    1  UNL1       -0.1679
     23 C          66.6272   93.8121   11.0808 C.ar    1  UNL1        0.0320
     24 C          65.8635   95.0356   10.6685 C.ar    1  UNL1        0.0138
     25 C          66.0790   95.6316    9.3090 C.ar    1  UNL1        0.0578
     26 CL         65.3153   96.8550    8.8968 Cl      1  UNL1       -0.0822
     27 C          67.0583   95.0041    8.3617 C.ar    1  UNL1        0.0123
     28 C          67.8219   93.7806    8.7739 C.ar    1  UNL1        0.0123
     29 C          67.6064   93.1847   10.1334 C.ar    1  UNL1        0.0592
     30 CL         68.3701   91.9612   10.5457 Cl      1  UNL1       -0.0822
@<TRIPOS>BOND
     1    17    18    1
     2    18    19   ar
     3    19    20   ar
     4    20     1    1
     5     1     2   am
     6     2     3    2
     7     2     5    1
     8     5     6   ar
     9     6     7   ar
    10     7     8   ar
    11     8     9   ar
    12     9    10   ar
    13    10    11   ar
    14    11    12    1
    15    11    13   ar
    16    13    14   ar
    17    20    21   ar
    18    21    23    1
    19    23    24   ar
    20    24    25   ar
    21    25    26    1
    22    25    27   ar
    23    27    28   ar
    24    28    29   ar
    25    29    30    1
    26    21    22   ar
    27    22    18   ar
    28    14     5   ar
    29    29    23   ar
    30    14     8   ar
    31     1     4    1
    32    12    15    1
    33    12    16    1
@<TRIPOS>MOLECULE
*****
 30 33 0 0 0
SMALL
GASTEIGER

@<TRIPOS>ATOM
      1 N          62.7704   89.2881   12.3026 N.am    1  UNL1       -0.2778
      2 C          62.5054   89.7836   10.9118 C.2     1  UNL1        0.2541
      3 O          63.3061   90.9240   10.3567 O.2     1  UNL1       -0.2696
      4 H          62.2449   88.5395   12.6669 H       1  UNL1        0.1553
      5 C          61.4397   89.1385   10.0762 C.ar    1  UNL1        0.1103
      6 C          60.0961   89.7230    9.7558 C.ar    1  UNL1        0.1281
      7 N          59.3566   88.7414    8.8959 N.ar    1  UNL1       -0.1619
      8 N          60.2433   87.5501    8.6847 N.ar    1  UNL1       -0.2104
      9 C          60.0447   86.2736    7.9224 C.ar    1  UNL1        0.1049
     10 C          61.1336   85.2425    7.8897 C.ar    1  UNL1        0.0546
     11 C          62.4211   85.4878    8.6191 C.ar    1  UNL1        0.1286
     12 N          63.5100   84.4567    8.5864 N.pl3   1  UNL1       -0.3425
     13 N          62.6197   86.7644    9.3815 N.ar    1  UNL1       -0.2121
     14 C          61.5308   87.7956    9.4142 C.ar    1  UNL1        0.1710
     15 H          63.3797   83.6189    8.0861 H       1  UNL1        0.1437
     16 H          64.3550   84.6178    9.0652 H       1  UNL1        0.1437
     17 C          66.3715   92.7179   14.0771 C.3     1  UNL1        0.1538
     18 N          65.4913   91.5096   13.9539 N.ar    1  UNL1       -0.2461
     19 C          64.4873   91.2571   12.8684 C.ar    1  UNL1        0.1113
     20 C          63.8360   89.9330   13.1383 C.ar    1  UNL1        0.0891
     21 C          64.4375   89.3673   14.3906 C.ar    1  UNL1        0.1166
     22 N          65.4605   90.3416   14.8946 N.ar    1  UNL1       -0.1679
     23 C          64.0789   88.0571   15.0270 C.ar    1  UNL1        0.0320
     24 C          64.4439   86.7695   14.3496 C.ar    1  UNL1        0.0138
     25 C          64.0853   85.4594   14.9860 C.ar    1  UNL1        0.0578
     26 CL         64.4502   84.1718   14.3087 Cl      1  UNL1       -0.0822
     27 C          63.3618   85.4369   16.2998 C.ar    1  UNL1        0.0123
     28 C          62.9969   86.7246   16.9772 C.ar    1  UNL1        0.0123
     29 C          63.3554   88.0347   16.3408 C.ar    1  UNL1        0.0592
     30 CL         62.9905   89.3223   17.0182 Cl      1  UNL1       -0.0822
@<TRIPOS>BOND
     1    17    18    1
     2    18    19   ar
     3    19    20   ar
     4    20     1    1
     5     1     2   am
     6     2     3    2
     7     2     5    1
     8     5     6   ar
     9     6     7   ar
    10     7     8   ar
    11     8     9   ar
    12     9    10   ar
    13    10    11   ar
    14    11    12    1
    15    11    13   ar
    16    13    14   ar
    17    20    21   ar
    18    21    23    1
    19    23    24   ar
    20    24    25   ar
    21    25    26    1
    22    25    27   ar
    23    27    28   ar
    24    28    29   ar
    25    29    30    1
    26    21    22   ar
    27    22    18   ar
    28    14     5   ar
    29    29    23   ar
    30    14     8   ar
    31     1     4    1
    32    12    15    1
    33    12    16    1
@<TRIPOS>MOLECULE
*****
 30 33 0 0 0
SMALL
GASTEIGER

@<TRIPOS>ATOM
      1 N          63.0083   87.0308   12.7030 N.am    1  UNL1       -0.2778
      2 C          63.7383   86.5690   13.9293 C.2     1  UNL1        0.2541
      3 O          64.6391   87.5149   14.6668 O.2     1  UNL1       -0.2696
      4 H          62.4171   86.4099   12.2190 H       1  UNL1        0.1553
      5 C          63.5676   85.1611   14.4181 C.ar    1  UNL1        0.1103
      6 C          63.3563   84.7419   15.8427 C.ar    1  UNL1        0.1281
      7 N          63.2363   83.2471   15.8730 N.ar    1  UNL1       -0.1619
      8 N          63.3735   82.7423   14.4672 N.ar    1  UNL1       -0.2104
      9 C          63.3384   81.3584   13.8897 C.ar    1  UNL1        0.1049
     10 C          63.5081   81.1575   12.4129 C.ar    1  UNL1        0.0546
     11 C          63.7129   82.3404   11.5137 C.ar    1  UNL1        0.1286
     12 N          63.8826   82.1395   10.0369 N.pl3   1  UNL1       -0.3425
     13 N          63.7479   83.7244   12.0912 N.ar    1  UNL1       -0.2121
     14 C          63.5782   83.9254   13.5680 C.ar    1  UNL1        0.1710
     15 H          63.8595   81.2311    9.6579 H       1  UNL1        0.1437
     16 H          64.0170   82.9159    9.4467 H       1  UNL1        0.1437
     17 C          64.4260   92.1088   12.4130 C.3     1  UNL1        0.1538
     18 N          63.8306   90.7727   12.0809 N.ar    1  UNL1       -0.2461
     19 C          63.9087   89.5375   12.9283 C.ar    1  UNL1        0.1113
     20 C          63.1790   88.4386   12.2142 C.ar    1  UNL1        0.0891
     21 C          62.6499   88.9946   10.9254 C.ar    1  UNL1        0.1166
     22 N          63.0527   90.4372   10.8431 N.ar    1  UNL1       -0.1679
     23 C          61.8573   88.2405    9.8992 C.ar    1  UNL1        0.0320
     24 C          62.4226   86.9965    9.2805 C.ar    1  UNL1        0.0138
     25 C          61.6299   86.2424    8.2543 C.ar    1  UNL1        0.0578
     26 CL         62.1952   84.9983    7.6356 Cl      1  UNL1       -0.0822
     27 C          60.2720   86.7323    7.8469 C.ar    1  UNL1        0.0123
     28 C          59.7067   87.9764    8.4656 C.ar    1  UNL1        0.0123
     29 C          60.4994   88.7305    9.4918 C.ar    1  UNL1        0.0592
     30 CL         59.9341   89.9746   10.1105 Cl      1  UNL1       -0.0822
@<TRIPOS>BOND
     1    17    18    1
     2    18    19   ar
     3    19    20   ar
     4    20     1    1
     5     1     2   am
     6     2     3    2
     7     2     5    1
     8     5     6   ar
     9     6     7   ar
    10     7     8   ar
    11     8     9   ar
    12     9    10   ar
    13    10    11   ar
    14    11    12    1
    15    11    13   ar
    16    13    14   ar
    17    20    21   ar
    18    21    23    1
    19    23    24   ar
    20    24    25   ar
    21    25    26    1
    22    25    27   ar
    23    27    28   ar
    24    28    29   ar
    25    29    30    1
    26    21    22   ar
    27    22    18   ar
    28    14     5   ar
    29    29    23   ar
    30    14     8   ar
    31     1     4    1
    32    12    15    1
    33    12    16    1
@<TRIPOS>MOLECULE
*****
 30 33 0 0 0
SMALL
GASTEIGER

@<TRIPOS>ATOM
      1 N          64.0351   88.3264   13.5631 N.am    1  UNL1       -0.2778
      2 C          63.3317   89.6468   13.4539 C.2     1  UNL1        0.2541
      3 O          62.2606   90.0098   14.4392 O.2     1  UNL1       -0.2696
      4 H          64.7381   88.0882   12.9164 H       1  UNL1        0.1553
      5 C          63.6994   90.6041   12.3591 C.ar    1  UNL1        0.1103
      6 C          63.2032   90.5585   10.9444 C.ar    1  UNL1        0.1281
      7 N          63.8251   91.7013   10.1980 N.ar    1  UNL1       -0.1619
      8 N          64.7057   92.4533   11.1513 N.ar    1  UNL1       -0.2104
      9 C          65.5682   93.6678   10.9758 C.ar    1  UNL1        0.1049
     10 C          66.3532   94.2043   12.1361 C.ar    1  UNL1        0.0546
     11 C          66.2756   93.5262   13.4718 C.ar    1  UNL1        0.1286
     12 N          67.0605   94.0627   14.6320 N.pl3   1  UNL1       -0.3425
     13 N          65.4130   92.3116   13.6473 N.ar    1  UNL1       -0.2121
     14 C          64.6280   91.7751   12.4871 C.ar    1  UNL1        0.1710
     15 H          67.6267   94.8598   14.5168 H       1  UNL1        0.1437
     16 H          67.0096   93.6176   15.5087 H       1  UNL1        0.1437
     17 C          62.8723   86.3372   18.3140 C.3     1  UNL1        0.1538
     18 N          63.1330   86.4548   16.8416 N.ar    1  UNL1       -0.2461
     19 C          63.5020   87.7106   16.1090 C.ar    1  UNL1        0.1113
     20 C          63.6675   87.3691   14.6578 C.ar    1  UNL1        0.0891
     21 C          63.4008   85.9022   14.4934 C.ar    1  UNL1        0.1166
     22 N          63.0704   85.3371   15.8431 N.ar    1  UNL1       -0.1679
     23 C          63.4549   85.1350   13.2056 C.ar    1  UNL1        0.0320
     24 C          62.7189   85.6403   12.0001 C.ar    1  UNL1        0.0138
     25 C          62.7731   84.8732   10.7123 C.ar    1  UNL1        0.0578
     26 CL         62.0372   85.3785    9.5068 Cl      1  UNL1       -0.0822
     27 C          63.5632   83.6008   10.6299 C.ar    1  UNL1        0.0123
     28 C          64.2991   83.0955   11.8353 C.ar    1  UNL1        0.0123
     29 C          64.2449   83.8627   13.1232 C.ar    1  UNL1        0.0592
     30 CL         64.9809   83.3573   14.3286 Cl      1  UNL1       -0.0822
@<TRIPOS>BOND
     1    17    18    1
     2    18    19   ar
     3    19    20   ar
     4    20     1    1
     5     1     2   am
     6     2     3    2
     7     2     5    1
     8     5     6   ar
     9     6     7   ar
    10     7     8   ar
    11     8     9   ar
    12     9    10   ar
    13    10    11   ar
    14    11    12    1
    15    11    13   ar
    16    13    14   ar
    17    20    21   ar
    18    21    23    1
    19    23    24   ar
    20    24    25   ar
    21    25    26    1
    22    25    27   ar
    23    27    28   ar
    24    28    29   ar
    25    29    30    1
    26    21    22   ar
    27    22    18   ar
    28    14     5   ar
    29    29    23   ar
    30    14     8   ar
    31     1     4    1
    32    12    15    1
    33    12    16    1
@<TRIPOS>MOLECULE
*****
 30 33 0 0 0
SMALL
GASTEIGER

@<TRIPOS>ATOM
      1 N          61.3730   86.6069   11.7384 N.am    1  UNL1       -0.2778
      2 C          62.2617   85.4256   11.4838 C.2     1  UNL1        0.2541
      3 O          62.9023   85.2448   10.1397 O.2     1  UNL1       -0.2696
      4 H          60.9525   86.7255   12.6206 H       1  UNL1        0.1553
      5 C          62.5097   84.4251   12.5736 C.ar    1  UNL1        0.1103
      6 C          62.6428   84.7293   14.0363 C.ar    1  UNL1        0.1281
      7 N          62.8835   83.4369   14.7585 N.ar    1  UNL1       -0.1619
      8 N          62.8992   82.3338   13.7422 N.ar    1  UNL1       -0.2104
      9 C          63.0941   80.8522   13.8719 C.ar    1  UNL1        0.1049
     10 C          63.0578   79.9813   12.6512 C.ar    1  UNL1        0.0546
     11 C          62.8268   80.5920   11.3007 C.ar    1  UNL1        0.1286
     12 N          62.7906   79.7210   10.0800 N.pl3   1  UNL1       -0.3425
     13 N          62.6320   82.0737   11.1710 N.ar    1  UNL1       -0.2121
     14 C          62.6682   82.9446   12.3918 C.ar    1  UNL1        0.1710
     15 H          62.9185   78.7486   10.1651 H       1  UNL1        0.1437
     16 H          62.6390   80.1219    9.1937 H       1  UNL1        0.1437
     17 C          59.5078   88.9186    7.3729 C.3     1  UNL1        0.1538
     18 N          60.2675   88.6700    8.6421 N.ar    1  UNL1       -0.2461
     19 C          60.2096   87.4236    9.4747 C.ar    1  UNL1        0.1113
     20 C          61.1249   87.6074   10.6487 C.ar    1  UNL1        0.0891
     21 C          61.7486   88.9674   10.5418 C.ar    1  UNL1        0.1166
     22 N          61.2187   89.6241    9.3016 N.ar    1  UNL1       -0.1679
     23 C          62.7299   89.5656   11.5057 C.ar    1  UNL1        0.0320
     24 C          63.0569   88.8510   12.7834 C.ar    1  UNL1        0.0138
     25 C          64.0382   89.4492   13.7473 C.ar    1  UNL1        0.0578
     26 CL         64.3653   88.7346   15.0249 Cl      1  UNL1       -0.0822
     27 C          64.6924   90.7621   13.4337 C.ar    1  UNL1        0.0123
     28 C          64.3653   91.4768   12.1561 C.ar    1  UNL1        0.0123
     29 C          63.3840   90.8785   11.1921 C.ar    1  UNL1        0.0592
     30 CL         63.0570   91.5932    9.9144 Cl      1  UNL1       -0.0822
@<TRIPOS>BOND
     1    17    18    1
     2    18    19   ar
     3    19    20   ar
     4    20     1    1
     5     1     2   am
     6     2     3    2
     7     2     5    1
     8     5     6   ar
     9     6     7   ar
    10     7     8   ar
    11     8     9   ar
    12     9    10   ar
    13    10    11   ar
    14    11    12    1
    15    11    13   ar
    16    13    14   ar
    17    20    21   ar
    18    21    23    1
    19    23    24   ar
    20    24    25   ar
    21    25    26    1
    22    25    27   ar
    23    27    28   ar
    24    28    29   ar
    25    29    30    1
    26    21    22   ar
    27    22    18   ar
    28    14     5   ar
    29    29    23   ar
    30    14     8   ar
    31     1     4    1
    32    12    15    1
    33    12    16    1
@<TRIPOS>MOLECULE
*****
 30 33 0 0 0
SMALL
GASTEIGER

@<TRIPOS>ATOM
      1 N          63.7284   87.7906   12.6369 N.am    1  UNL1       -0.2778
      2 C          63.7956   88.9489   13.5876 C.2     1  UNL1        0.2541
      3 O          63.4943   88.7435   15.0425 O.2     1  UNL1       -0.2696
      4 H          63.9261   87.9254   11.6820 H       1  UNL1        0.1553
      5 C          64.1641   90.3126   13.0831 C.ar    1  UNL1        0.1103
      6 C          63.5600   91.0078   11.8993 C.ar    1  UNL1        0.1281
      7 N          64.2240   92.3454   11.7586 N.ar    1  UNL1       -0.1619
      8 N          65.2386   92.4770   12.8555 N.ar    1  UNL1       -0.2104
      9 C          66.1913   93.5785   13.2147 C.ar    1  UNL1        0.1049
     10 C          67.1071   93.4236   14.3925 C.ar    1  UNL1        0.0546
     11 C          67.0701   92.1672   15.2112 C.ar    1  UNL1        0.1286
     12 N          67.9859   92.0123   16.3891 N.pl3   1  UNL1       -0.3425
     13 N          66.1173   91.0657   14.8520 N.ar    1  UNL1       -0.2121
     14 C          65.2015   91.2206   13.6742 C.ar    1  UNL1        0.1710
     15 H          68.6113   92.7353   16.6248 H       1  UNL1        0.1437
     16 H          67.9616   91.1878   16.9264 H       1  UNL1        0.1437
     17 C          63.0531   83.6217   15.8063 C.3     1  UNL1        0.1538
     18 N          63.0495   84.5106   14.5981 N.ar    1  UNL1       -0.2461
     19 C          63.5586   85.9203   14.5391 C.ar    1  UNL1        0.1113
     20 C          63.3599   86.4268   13.1413 C.ar    1  UNL1        0.0891
     21 C          62.7279   85.3301   12.3363 C.ar    1  UNL1        0.1166
     22 N          62.5361   84.1458   13.2367 N.ar    1  UNL1       -0.1679
     23 C          62.3535   85.4046   10.8857 C.ar    1  UNL1        0.0320
     24 C          61.1722   86.2236   10.4571 C.ar    1  UNL1        0.0138
     25 C          60.7978   86.2982    9.0065 C.ar    1  UNL1        0.0578
     26 CL         59.6164   87.1171    8.5779 Cl      1  UNL1       -0.0822
     27 C          61.6048   85.5537    7.9845 C.ar    1  UNL1        0.0123
     28 C          62.7861   84.7347    8.4130 C.ar    1  UNL1        0.0123
     29 C          63.1605   84.6602    9.8636 C.ar    1  UNL1        0.0592
     30 CL         64.3419   83.8412   10.2922 Cl      1  UNL1       -0.0822
@<TRIPOS>BOND
     1    17    18    1
     2    18    19   ar
     3    19    20   ar
     4    20     1    1
     5     1     2   am
     6     2     3    2
     7     2     5    1
     8     5     6   ar
     9     6     7   ar
    10     7     8   ar
    11     8     9   ar
    12     9    10   ar
    13    10    11   ar
    14    11    12    1
    15    11    13   ar
    16    13    14   ar
    17    20    21   ar
    18    21    23    1
    19    23    24   ar
    20    24    25   ar
    21    25    26    1
    22    25    27   ar
    23    27    28   ar
    24    28    29   ar
    25    29    30    1
    26    21    22   ar
    27    22    18   ar
    28    14     5   ar
    29    29    23   ar
    30    14     8   ar
    31     1     4    1
    32    12    15    1
    33    12    16    1
