@<TRIPOS>MOLECULE
*****
 38 41 0 0 0
SMALL
GASTEIGER

@<TRIPOS>ATOM
      1 C          63.1990   84.0774   11.5882 C.ar    1  UNL1        0.2335
      2 C          62.6025   82.7013   11.5604 C.ar    1  UNL1        0.0788
      3 C          62.3140   81.9829   12.8452 C.ar    1  UNL1        0.1067
      4 N          62.6221   82.6406   14.1578 N.ar    1  UNL1       -0.2118
      5 C          63.2186   84.0165   14.1855 C.ar    1  UNL1        0.2232
      6 N          63.5071   84.7350   12.9007 N.ar    1  UNL1       -0.1783
      7 N          63.5266   84.6742   15.4980 N.pl3   1  UNL1       -0.2825
      8 H          63.6575   84.1254   16.3048 H       1  UNL1        0.1551
      9 C          63.6352   86.1679   15.5812 C.ar    1  UNL1        0.0504
     10 C          63.0148   86.9020   16.7329 C.ar    1  UNL1        0.0144
     11 C          63.1234   88.3958   16.8161 C.ar    1  UNL1       -0.0016
     12 C          63.8524   89.1554   15.7476 C.ar    1  UNL1       -0.0061
     13 C          64.4727   88.4213   14.5960 C.ar    1  UNL1       -0.0016
     14 C          64.3641   86.9276   14.5128 C.ar    1  UNL1        0.0144
     15 C          63.9609   90.6492   15.8308 C.3     1  UNL1        0.0992
     16 N          64.5586   91.4223   14.6927 N.3     1  UNL1       -0.2664
     17 C          63.9736   91.3038   13.3166 C.3     1  UNL1        0.0917
     18 C          64.5712   92.0769   12.1784 C.3     1  UNL1        0.1128
     19 N          65.7538   92.9684   12.4165 N.3     1  UNL1       -0.1565
     20 C          66.3388   93.0869   13.7927 C.3     1  UNL1        0.1128
     21 C          65.7412   92.3138   14.9308 C.3     1  UNL1        0.0917
     22 S          66.3515   93.7415   11.2785 S.O2    1  UNL1        0.0457
     23 C          66.9491   94.5145   10.1404 C.3     1  UNL1        0.1960
     24 O          66.1663   95.0162   12.0471 O.2     1  UNL1       -0.1572
     25 O          66.5366   92.4668   10.5098 O.2     1  UNL1       -0.1572
     26 O          63.4875   84.7958   10.3034 O.3     1  UNL1       -0.4366
     27 C          62.7019   84.2976    7.4513 C.3     1  UNL1        0.0342
     28 C          62.0328   85.3884    8.2339 C.ar    1  UNL1        0.0124
     29 C          60.9709   86.2300    7.5906 C.ar    1  UNL1       -0.0012
     30 C          60.3018   87.3208    8.3732 C.ar    1  UNL1        0.0003
     31 C          60.6946   87.5699    9.7992 C.ar    1  UNL1       -0.0012
     32 C          61.7565   86.7282   10.4426 C.ar    1  UNL1        0.0124
     33 C          62.1494   86.9773   11.8687 C.3     1  UNL1        0.0342
     34 C          62.4256   85.6375    9.6600 C.ar    1  UNL1        0.1391
     35 C          59.2399   88.1625    7.7298 C.2     1  UNL1        0.0109
     36 C          59.6239   89.2524    6.7734 C.2     1  UNL1        0.0780
     37 C          58.5620   90.0941    6.1300 C.1     1  UNL1        0.1011
     38 N          57.5001   90.9358    5.4866 N.1     1  UNL1       -0.1908
@<TRIPOS>BOND
     1    27    28    1
     2    28    29   ar
     3    29    30   ar
     4    30    35    1
     5    35    36    2
     6    36    37    1
     7    37    38    3
     8    30    31   ar
     9    31    32   ar
    10    32    33    1
    11    32    34   ar
    12    34    26    1
    13    26     1    1
    14     1     2   ar
    15     2     3   ar
    16     3     4   ar
    17     4     5   ar
    18     5     7    1
    19     7     9    1
    20     9    10   ar
    21    10    11   ar
    22    11    12   ar
    23    12    15    1
    24    15    16    1
    25    16    17    1
    26    17    18    1
    27    18    19    1
    28    19    22    1
    29    22    23    1
    30    22    24    2
    31    22    25    2
    32    19    20    1
    33    20    21    1
    34    12    13   ar
    35    13    14   ar
    36     5     6   ar
    37    34    28   ar
    38     6     1   ar
    39    14     9   ar
    40    21    16    1
    41     7     8    1
@<TRIPOS>MOLECULE
*****
 38 41 0 0 0
SMALL
GASTEIGER

@<TRIPOS>ATOM
      1 C          63.1877   84.0774   11.5888 C.ar    1  UNL1        0.2335
      2 C          62.5870   82.7031   11.5602 C.ar    1  UNL1        0.0788
      3 C          62.3014   81.9826   12.8444 C.ar    1  UNL1        0.1067
      4 N          62.6164   82.6364   14.1573 N.ar    1  UNL1       -0.2118
      5 C          63.2171   84.0105   14.1858 C.ar    1  UNL1        0.2232
      6 N          63.5027   84.7310   12.9016 N.ar    1  UNL1       -0.1783
      7 N          63.5321   84.6643   15.4986 N.pl3   1  UNL1       -0.2825
      8 H          63.6701   84.1129   16.3025 H       1  UNL1        0.1551
      9 C          63.6369   86.1580   15.5866 C.ar    1  UNL1        0.0504
     10 C          64.3664   86.9227   14.5221 C.ar    1  UNL1        0.0144
     11 C          64.4712   88.4164   14.6101 C.ar    1  UNL1       -0.0016
     12 C          63.8463   89.1455   15.7625 C.ar    1  UNL1       -0.0061
     13 C          63.1168   88.3808   16.8270 C.ar    1  UNL1       -0.0016
     14 C          63.0121   86.8871   16.7390 C.ar    1  UNL1        0.0144
     15 C          63.9511   90.6393   15.8505 C.3     1  UNL1        0.0992
     16 N          64.5557   91.4166   14.7190 N.3     1  UNL1       -0.2664
     17 C          63.9599   91.3279   13.3453 C.3     1  UNL1        0.0917
     18 C          64.5645   92.1053   12.2139 C.3     1  UNL1        0.1128
     19 N          65.7650   92.9713   12.4561 N.3     1  UNL1       -0.1565
     20 C          66.3609   93.0600   13.8299 C.3     1  UNL1        0.1128
     21 C          65.7563   92.2827   14.9613 C.3     1  UNL1        0.0917
     22 S          66.3697   93.7487   11.3248 S.O2    1  UNL1        0.0457
     23 C          66.9743   94.5260   10.1934 C.3     1  UNL1        0.1960
     24 O          66.5755   92.4750   10.5596 O.2     1  UNL1       -0.1572
     25 O          66.1639   95.0223   12.0899 O.2     1  UNL1       -0.1572
     26 O          63.4734   84.7978   10.3045 O.3     1  UNL1       -0.4366
     27 C          62.1107   86.9350   11.9095 C.3     1  UNL1        0.0342
     28 C          61.7329   86.7193   10.4739 C.ar    1  UNL1        0.0124
     29 C          60.6738   87.5722    9.8409 C.ar    1  UNL1       -0.0012
     30 C          60.2960   87.3566    8.4053 C.ar    1  UNL1        0.0003
     31 C          60.9773   86.2880    7.6029 C.ar    1  UNL1       -0.0012
     32 C          62.0364   85.4351    8.2359 C.ar    1  UNL1        0.0124
     33 C          62.7177   84.3665    7.4335 C.3     1  UNL1        0.0342
     34 C          62.4142   85.6508    9.6715 C.ar    1  UNL1        0.1391
     35 C          59.2368   88.2095    7.7723 C.2     1  UNL1        0.0109
     36 C          59.6164   89.2461    6.7567 C.2     1  UNL1        0.0780
     37 C          58.5573   90.0990    6.1236 C.1     1  UNL1        0.1011
     38 N          57.4982   90.9520    5.4905 N.1     1  UNL1       -0.1908
@<TRIPOS>BOND
     1    27    28    1
     2    28    29   ar
     3    29    30   ar
     4    30    35    1
     5    35    36    2
     6    36    37    1
     7    37    38    3
     8    30    31   ar
     9    31    32   ar
    10    32    33    1
    11    32    34   ar
    12    34    26    1
    13    26     1    1
    14     1     2   ar
    15     2     3   ar
    16     3     4   ar
    17     4     5   ar
    18     5     7    1
    19     7     9    1
    20     9    10   ar
    21    10    11   ar
    22    11    12   ar
    23    12    15    1
    24    15    16    1
    25    16    17    1
    26    17    18    1
    27    18    19    1
    28    19    22    1
    29    22    23    1
    30    22    24    2
    31    22    25    2
    32    19    20    1
    33    20    21    1
    34    12    13   ar
    35    13    14   ar
    36     5     6   ar
    37    34    28   ar
    38     6     1   ar
    39    14     9   ar
    40    21    16    1
    41     7     8    1
@<TRIPOS>MOLECULE
*****
 38 41 0 0 0
SMALL
GASTEIGER

@<TRIPOS>ATOM
      1 C          62.9711   84.6247   12.2236 C.ar    1  UNL1        0.2335
      2 C          62.4947   83.2148   12.4122 C.ar    1  UNL1        0.0788
      3 C          62.1710   82.7101   13.7871 C.ar    1  UNL1        0.1067
      4 N          62.3237   83.6153   14.9735 N.ar    1  UNL1       -0.2118
      5 C          62.8000   85.0251   14.7849 C.ar    1  UNL1        0.2232
      6 N          63.1237   85.5297   13.4099 N.ar    1  UNL1       -0.1783
      7 N          62.9527   85.9302   15.9713 N.pl3   1  UNL1       -0.2825
      8 H          62.7722   85.5893   16.8771 H       1  UNL1        0.1551
      9 C          63.3804   87.3548   15.7776 C.ar    1  UNL1        0.0504
     10 C          64.3688   87.7018   14.7038 C.ar    1  UNL1        0.0144
     11 C          64.7965   89.1264   14.5101 C.ar    1  UNL1       -0.0016
     12 C          64.2359   90.2041   15.3902 C.ar    1  UNL1       -0.0061
     13 C          63.2476   89.8571   16.4639 C.ar    1  UNL1       -0.0016
     14 C          62.8199   88.4325   16.6576 C.ar    1  UNL1        0.0144
     15 C          64.6637   91.6287   15.1965 C.3     1  UNL1        0.0992
     16 N          65.3574   92.0380   13.9310 N.3     1  UNL1       -0.2664
     17 C          66.8384   91.8450   13.7915 C.3     1  UNL1        0.0917
     18 C          67.5321   92.2544   12.5260 C.3     1  UNL1        0.1128
     19 N          66.7448   92.8566   11.4002 N.3     1  UNL1       -0.1565
     20 C          65.2638   93.0496   11.5398 C.3     1  UNL1        0.1128
     21 C          64.5701   92.6403   12.8052 C.3     1  UNL1        0.0917
     22 S          67.4385   93.2660   10.1348 S.O2    1  UNL1        0.0457
     23 C          68.1322   93.6753    8.8694 C.3     1  UNL1        0.1960
     24 O          66.2185   94.0299    9.7131 O.2     1  UNL1       -0.1572
     25 O          68.6585   92.5020   10.5565 O.2     1  UNL1       -0.1572
     26 O          63.2948   85.1294   10.8486 O.3     1  UNL1       -0.4366
     27 C          62.0639   84.1659    8.2880 C.3     1  UNL1        0.0342
     28 C          61.6966   85.5129    8.8364 C.ar    1  UNL1        0.0124
     29 C          60.7140   86.3781    8.1045 C.ar    1  UNL1       -0.0012
     30 C          60.3468   87.7251    8.6529 C.ar    1  UNL1        0.0003
     31 C          60.9622   88.2069    9.9332 C.ar    1  UNL1       -0.0012
     32 C          61.9448   87.3416   10.6651 C.ar    1  UNL1        0.0124
     33 C          62.5603   87.8233   11.9454 C.3     1  UNL1        0.0342
     34 C          62.3121   85.9946   10.1167 C.ar    1  UNL1        0.1391
     35 C          59.3641   88.5904    7.9210 C.2     1  UNL1        0.0109
     36 C          59.7958   89.3490    6.7010 C.2     1  UNL1        0.0780
     37 C          58.8132   90.2142    5.9691 C.1     1  UNL1        0.1011
     38 N          57.8306   91.0795    5.2371 N.1     1  UNL1       -0.1908
@<TRIPOS>BOND
     1    27    28    1
     2    28    29   ar
     3    29    30   ar
     4    30    35    1
     5    35    36    2
     6    36    37    1
     7    37    38    3
     8    30    31   ar
     9    31    32   ar
    10    32    33    1
    11    32    34   ar
    12    34    26    1
    13    26     1    1
    14     1     2   ar
    15     2     3   ar
    16     3     4   ar
    17     4     5   ar
    18     5     7    1
    19     7     9    1
    20     9    10   ar
    21    10    11   ar
    22    11    12   ar
    23    12    15    1
    24    15    16    1
    25    16    17    1
    26    17    18    1
    27    18    19    1
    28    19    22    1
    29    22    23    1
    30    22    24    2
    31    22    25    2
    32    19    20    1
    33    20    21    1
    34    12    13   ar
    35    13    14   ar
    36     5     6   ar
    37    34    28   ar
    38     6     1   ar
    39    14     9   ar
    40    21    16    1
    41     7     8    1
@<TRIPOS>MOLECULE
*****
 38 41 0 0 0
SMALL
GASTEIGER

@<TRIPOS>ATOM
      1 C          60.1414   87.4218    9.7000 C.ar    1  UNL1        0.2335
      2 C          60.7533   86.2557    8.9817 C.ar    1  UNL1        0.0788
      3 C          60.5052   86.0645    7.5147 C.ar    1  UNL1        0.1067
      4 N          59.6454   87.0394    6.7662 N.ar    1  UNL1       -0.2118
      5 C          59.0336   88.2054    7.4845 C.ar    1  UNL1        0.2232
      6 N          59.2816   88.3966    8.9515 N.ar    1  UNL1       -0.1783
      7 N          58.1737   89.1803    6.7359 N.pl3   1  UNL1       -0.2825
      8 H          57.1953   89.1567    6.8427 H       1  UNL1        0.1551
      9 C          58.8047   90.1911    5.8248 C.ar    1  UNL1        0.0504
     10 C          57.9507   91.2072    5.1259 C.ar    1  UNL1        0.0144
     11 C          58.5816   92.2179    4.2147 C.ar    1  UNL1       -0.0016
     12 C          60.0665   92.2126    4.0024 C.ar    1  UNL1       -0.0061
     13 C          60.9204   91.1965    4.7012 C.ar    1  UNL1       -0.0016
     14 C          60.2895   90.1858    5.6124 C.ar    1  UNL1        0.0144
     15 C          60.6974   93.2234    3.0912 C.3     1  UNL1        0.0992
     16 N          60.2244   93.3538    1.6737 N.3     1  UNL1       -0.2664
     17 C          60.2464   92.1621    0.7630 C.3     1  UNL1        0.0917
     18 C          59.7733   92.2925   -0.6545 C.3     1  UNL1        0.1128
     19 N          59.2783   93.6147   -1.1613 N.3     1  UNL1       -0.1565
     20 C          59.2563   94.8064   -0.2505 C.3     1  UNL1        0.1128
     21 C          59.7293   94.6760    1.1669 C.3     1  UNL1        0.0917
     22 S          58.8052   93.7452   -2.5787 S.O2    1  UNL1        0.0457
     23 C          58.3322   93.8756   -3.9962 C.3     1  UNL1        0.1960
     24 O          59.2456   95.1790   -2.5937 O.2     1  UNL1       -0.1572
     25 O          58.3648   92.3114   -2.5637 O.2     1  UNL1       -0.1572
     26 O          60.3895   87.6130   11.1670 O.3     1  UNL1       -0.4366
     27 C          62.9989   86.5579   12.2051 C.3     1  UNL1        0.0342
     28 C          62.7571   88.0372   12.1491 C.ar    1  UNL1        0.0124
     29 C          63.8199   88.9889   12.6122 C.ar    1  UNL1       -0.0012
     30 C          63.5781   90.4682   12.5563 C.ar    1  UNL1        0.0003
     31 C          62.2734   90.9958   12.0373 C.ar    1  UNL1       -0.0012
     32 C          61.2106   90.0441   11.5742 C.ar    1  UNL1        0.0124
     33 C          59.9058   90.5716   11.0551 C.3     1  UNL1        0.0342
     34 C          61.4524   88.5647   11.6301 C.ar    1  UNL1        0.1391
     35 C          64.6410   91.4200   13.0194 C.2     1  UNL1        0.0109
     36 C          65.3854   91.1507   14.2935 C.2     1  UNL1        0.0780
     37 C          66.4483   92.1024   14.7566 C.1     1  UNL1        0.1011
     38 N          67.5112   93.0542   15.2198 N.1     1  UNL1       -0.1908
@<TRIPOS>BOND
     1    27    28    1
     2    28    29   ar
     3    29    30   ar
     4    30    35    1
     5    35    36    2
     6    36    37    1
     7    37    38    3
     8    30    31   ar
     9    31    32   ar
    10    32    33    1
    11    32    34   ar
    12    34    26    1
    13    26     1    1
    14     1     2   ar
    15     2     3   ar
    16     3     4   ar
    17     4     5   ar
    18     5     7    1
    19     7     9    1
    20     9    10   ar
    21    10    11   ar
    22    11    12   ar
    23    12    15    1
    24    15    16    1
    25    16    17    1
    26    17    18    1
    27    18    19    1
    28    19    22    1
    29    22    23    1
    30    22    24    2
    31    22    25    2
    32    19    20    1
    33    20    21    1
    34    12    13   ar
    35    13    14   ar
    36     5     6   ar
    37    34    28   ar
    38     6     1   ar
    39    14     9   ar
    40    21    16    1
    41     7     8    1
@<TRIPOS>MOLECULE
*****
 38 41 0 0 0
SMALL
GASTEIGER

@<TRIPOS>ATOM
      1 C          63.4303   82.8551   11.1672 C.ar    1  UNL1        0.2335
      2 C          63.2385   81.4639   10.6402 C.ar    1  UNL1        0.0788
      3 C          62.9024   80.3451   11.5811 C.ar    1  UNL1        0.1067
      4 N          62.7581   80.6176   13.0492 N.ar    1  UNL1       -0.2118
      5 C          62.9499   82.0088   13.5761 C.ar    1  UNL1        0.2232
      6 N          63.2860   83.1275   12.6352 N.ar    1  UNL1       -0.1783
      7 N          62.8056   82.2813   15.0442 N.pl3   1  UNL1       -0.2825
      8 H          62.6940   81.5337   15.6750 H       1  UNL1        0.1551
      9 C          62.8313   83.6928   15.5510 C.ar    1  UNL1        0.0504
     10 C          64.1428   84.3868   15.7714 C.ar    1  UNL1        0.0144
     11 C          64.1685   85.7983   16.2783 C.ar    1  UNL1       -0.0016
     12 C          62.8827   86.5159   16.5647 C.ar    1  UNL1       -0.0061
     13 C          61.5714   85.8219   16.3443 C.ar    1  UNL1       -0.0016
     14 C          61.5456   84.4104   15.8375 C.ar    1  UNL1        0.0144
     15 C          62.9084   87.9274   17.0716 C.3     1  UNL1        0.0992
     16 N          63.5175   89.0136   16.2353 N.3     1  UNL1       -0.2664
     17 C          64.0441   88.7000   14.8663 C.3     1  UNL1        0.0917
     18 C          64.6532   89.7862   14.0300 C.3     1  UNL1        0.1128
     19 N          64.7355   91.1860   14.5628 N.3     1  UNL1       -0.1565
     20 C          64.2088   91.4996   15.9319 C.3     1  UNL1        0.1128
     21 C          63.5998   90.4134   16.7681 C.3     1  UNL1        0.0917
     22 S          65.3445   92.2722   13.7266 S.O2    1  UNL1        0.0457
     23 C          65.9534   93.3584   12.8903 C.3     1  UNL1        0.1960
     24 O          64.3748   91.9667   12.6237 O.2     1  UNL1       -0.1572
     25 O          66.3141   92.5777   14.8295 O.2     1  UNL1       -0.1572
     26 O          63.7664   83.9739   10.2263 O.3     1  UNL1       -0.4366
     27 C          62.2545   84.8037    7.7716 C.3     1  UNL1        0.0342
     28 C          62.1957   85.6482    9.0098 C.ar    1  UNL1        0.0124
     29 C          61.3811   86.9076    9.0208 C.ar    1  UNL1       -0.0012
     30 C          61.3224   87.7522   10.2590 C.ar    1  UNL1        0.0003
     31 C          62.0783   87.3373   11.4864 C.ar    1  UNL1       -0.0012
     32 C          62.8930   86.0779   11.4754 C.ar    1  UNL1        0.0124
     33 C          63.6490   85.6630   12.7028 C.3     1  UNL1        0.0342
     34 C          62.9517   85.2333   10.2372 C.ar    1  UNL1        0.1391
     35 C          60.5077   89.0117   10.2699 C.2     1  UNL1        0.0109
     36 C          59.9543   89.5358   11.5619 C.2     1  UNL1        0.0780
     37 C          59.1397   90.7952   11.5728 C.1     1  UNL1        0.1011
     38 N          58.3249   92.0547   11.5838 N.1     1  UNL1       -0.1908
@<TRIPOS>BOND
     1    27    28    1
     2    28    29   ar
     3    29    30   ar
     4    30    35    1
     5    35    36    2
     6    36    37    1
     7    37    38    3
     8    30    31   ar
     9    31    32   ar
    10    32    33    1
    11    32    34   ar
    12    34    26    1
    13    26     1    1
    14     1     2   ar
    15     2     3   ar
    16     3     4   ar
    17     4     5   ar
    18     5     7    1
    19     7     9    1
    20     9    10   ar
    21    10    11   ar
    22    11    12   ar
    23    12    15    1
    24    15    16    1
    25    16    17    1
    26    17    18    1
    27    18    19    1
    28    19    22    1
    29    22    23    1
    30    22    24    2
    31    22    25    2
    32    19    20    1
    33    20    21    1
    34    12    13   ar
    35    13    14   ar
    36     5     6   ar
    37    34    28   ar
    38     6     1   ar
    39    14     9   ar
    40    21    16    1
    41     7     8    1
@<TRIPOS>MOLECULE
*****
 38 41 0 0 0
SMALL
GASTEIGER

@<TRIPOS>ATOM
      1 C          61.1171   89.0795   10.4329 C.ar    1  UNL1        0.2335
      2 C          62.0027   87.8698   10.4805 C.ar    1  UNL1        0.0788
      3 C          61.9436   86.8532    9.3791 C.ar    1  UNL1        0.1067
      4 N          60.9987   87.0463    8.2301 N.ar    1  UNL1       -0.2118
      5 C          60.1131   88.2560    8.1826 C.ar    1  UNL1        0.2232
      6 N          60.1723   89.2726    9.2840 N.ar    1  UNL1       -0.1783
      7 N          59.1683   88.4492    7.0336 N.pl3   1  UNL1       -0.2825
      8 H          58.4911   87.7635    6.8325 H       1  UNL1        0.1551
      9 C          59.2553   89.6872    6.1910 C.ar    1  UNL1        0.0504
     10 C          60.5796   90.1296    5.6427 C.ar    1  UNL1        0.0144
     11 C          60.6666   91.3675    4.8001 C.ar    1  UNL1       -0.0016
     12 C          59.4293   92.1630    4.5059 C.ar    1  UNL1       -0.0061
     13 C          58.1052   91.7206    5.0543 C.ar    1  UNL1       -0.0016
     14 C          58.0182   90.4826    5.8968 C.ar    1  UNL1        0.0144
     15 C          59.5163   93.4010    3.6633 C.3     1  UNL1        0.0992
     16 N          60.2421   93.3655    2.3510 N.3     1  UNL1       -0.2664
     17 C          61.7410   93.3174    2.3239 C.3     1  UNL1        0.0917
     18 C          62.4667   93.2820    1.0116 C.3     1  UNL1        0.1128
     19 N          61.6934   93.2946   -0.2736 N.3     1  UNL1       -0.1565
     20 C          60.1944   93.3427   -0.2465 C.3     1  UNL1        0.1128
     21 C          59.4687   93.3782    1.0658 C.3     1  UNL1        0.0917
     22 S          62.4190   93.2592   -1.5859 S.O2    1  UNL1        0.0457
     23 C          63.1446   93.2237   -2.8982 C.3     1  UNL1        0.1960
     24 O          61.1102   93.1237   -2.3060 O.2     1  UNL1       -0.1572
     25 O          63.7279   93.3947   -0.8659 O.2     1  UNL1       -0.1572
     26 O          61.1763   90.0961   11.5342 O.3     1  UNL1       -0.4366
     27 C          63.1348   91.6066    9.8363 C.3     1  UNL1        0.0342
     28 C          63.4805   91.2635   11.2551 C.ar    1  UNL1        0.0124
     29 C          64.8054   91.6757   11.8249 C.ar    1  UNL1       -0.0012
     30 C          65.1511   91.3326   13.2436 C.ar    1  UNL1        0.0003
     31 C          64.1719   90.5774   14.0926 C.ar    1  UNL1       -0.0012
     32 C          62.8470   90.1653   13.5228 C.ar    1  UNL1        0.0124
     33 C          61.8677   89.4100   14.3717 C.3     1  UNL1        0.0342
     34 C          62.5013   90.5083   12.1040 C.ar    1  UNL1        0.1391
     35 C          66.4761   91.7448   13.8134 C.2     1  UNL1        0.0109
     36 C          66.5636   92.9330   14.7247 C.2     1  UNL1        0.0780
     37 C          67.8885   93.3452   15.2945 C.1     1  UNL1        0.1011
     38 N          69.2135   93.7574   15.8643 N.1     1  UNL1       -0.1908
@<TRIPOS>BOND
     1    27    28    1
     2    28    29   ar
     3    29    30   ar
     4    30    35    1
     5    35    36    2
     6    36    37    1
     7    37    38    3
     8    30    31   ar
     9    31    32   ar
    10    32    33    1
    11    32    34   ar
    12    34    26    1
    13    26     1    1
    14     1     2   ar
    15     2     3   ar
    16     3     4   ar
    17     4     5   ar
    18     5     7    1
    19     7     9    1
    20     9    10   ar
    21    10    11   ar
    22    11    12   ar
    23    12    15    1
    24    15    16    1
    25    16    17    1
    26    17    18    1
    27    18    19    1
    28    19    22    1
    29    22    23    1
    30    22    24    2
    31    22    25    2
    32    19    20    1
    33    20    21    1
    34    12    13   ar
    35    13    14   ar
    36     5     6   ar
    37    34    28   ar
    38     6     1   ar
    39    14     9   ar
    40    21    16    1
    41     7     8    1
