@<TRIPOS>MOLECULE
*****
 14 14 0 0 0
SMALL
GASTEIGER

@<TRIPOS>ATOM
      1 C          62.6803   81.8858   13.0376 C.ar    1  UNL1       -0.0115
      2 C          62.7958   81.0666   11.7864 C.ar    1  UNL1        0.0170
      3 C          63.5046   81.6241   10.5877 C.ar    1  UNL1        0.0986
      4 N          64.0979   83.0007   10.6402 N.ar    1  UNL1       -0.2417
      5 C          63.9823   83.8199   11.8914 C.ar    1  UNL1        0.1067
      6 C          63.2735   83.2624   13.0901 C.ar    1  UNL1        0.0569
      7 C          60.5881   80.7660   14.0952 C.3     1  UNL1        0.0050
      8 C          61.9715   81.3283   14.2363 C.3     1  UNL1        0.0271
      9 C          63.1580   84.0817   14.3414 C.1     1  UNL1       -0.0618
     10 C          63.0425   84.9009   15.5925 C.1     1  UNL1       -0.0689
     11 C          62.9270   85.7201   16.8438 C.3     1  UNL1        0.1432
     12 N          61.5943   86.2669   17.2619 N.3     1  UNL1       -0.3102
     13 H          61.2793   86.9548   16.5778 H       1  UNL1        0.1198
     14 H          61.6807   86.7113   18.1759 H       1  UNL1        0.1198
@<TRIPOS>BOND
     1     7     8    1
     2     8     1    1
     3     1     2   ar
     4     2     3   ar
     5     3     4   ar
     6     4     5   ar
     7     5     6   ar
     8     6     9    1
     9     9    10    3
    10    10    11    1
    11    11    12    1
    12     6     1   ar
    13    12    13    1
    14    12    14    1
@<TRIPOS>MOLECULE
*****
 14 14 0 0 0
SMALL
GASTEIGER

@<TRIPOS>ATOM
      1 C          67.2964   93.9387    9.9031 C.ar    1  UNL1       -0.0115
      2 C          67.7856   94.9855    8.9466 C.ar    1  UNL1        0.0170
      3 C          67.3247   96.4058    9.0892 C.ar    1  UNL1        0.0986
      4 N          66.3747   96.7793   10.1883 N.ar    1  UNL1       -0.2417
      5 C          65.8856   95.7325   11.1447 C.ar    1  UNL1        0.1067
      6 C          66.3464   94.3122   11.0021 C.ar    1  UNL1        0.0569
      7 C          68.8182   92.1711    8.7587 C.3     1  UNL1        0.0050
      8 C          67.7573   92.5183    9.7605 C.3     1  UNL1        0.0271
      9 C          65.8572   93.2653   11.9587 C.1     1  UNL1       -0.0618
     10 C          65.3680   92.2186   12.9152 C.1     1  UNL1       -0.0689
     11 C          64.8788   91.1717   13.8717 C.3     1  UNL1        0.1432
     12 N          63.4753   91.2332   14.3973 N.3     1  UNL1       -0.3102
     13 H          63.3671   92.0622   14.9816 H       1  UNL1        0.1198
     14 H          63.2831   90.3990   14.9519 H       1  UNL1        0.1198
@<TRIPOS>BOND
     1     7     8    1
     2     8     1    1
     3     1     2   ar
     4     2     3   ar
     5     3     4   ar
     6     4     5   ar
     7     5     6   ar
     8     6     9    1
     9     9    10    3
    10    10    11    1
    11    11    12    1
    12     6     1   ar
    13    12    13    1
    14    12    14    1
@<TRIPOS>MOLECULE
*****
 14 14 0 0 0
SMALL
GASTEIGER

@<TRIPOS>ATOM
      1 C          63.1154   84.7761    9.3962 C.ar    1  UNL1       -0.0115
      2 C          63.8451   83.5399    9.8314 C.ar    1  UNL1        0.0170
      3 C          63.8075   83.1138   11.2692 C.ar    1  UNL1        0.0986
      4 N          63.0403   83.9239   12.2717 N.ar    1  UNL1       -0.2417
      5 C          62.3107   85.1601   11.8365 C.ar    1  UNL1        0.1067
      6 C          62.3482   85.5862   10.3987 C.ar    1  UNL1        0.0569
      7 C          62.0396   84.8133    7.0317 C.3     1  UNL1        0.0050
      8 C          63.1530   85.2021    7.9585 C.3     1  UNL1        0.0271
      9 C          61.6185   86.8224    9.9635 C.1     1  UNL1       -0.0618
     10 C          60.8889   88.0586    9.5283 C.1     1  UNL1       -0.0689
     11 C          60.1592   89.2948    9.0932 C.3     1  UNL1        0.1432
     12 N          60.1410   90.5057    9.9782 N.3     1  UNL1       -0.3102
     13 H          59.6250   90.2947   10.8324 H       1  UNL1        0.1198
     14 H          59.6878   91.2776    9.4891 H       1  UNL1        0.1198
@<TRIPOS>BOND
     1     7     8    1
     2     8     1    1
     3     1     2   ar
     4     2     3   ar
     5     3     4   ar
     6     4     5   ar
     7     5     6   ar
     8     6     9    1
     9     9    10    3
    10    10    11    1
    11    11    12    1
    12     6     1   ar
    13    12    13    1
    14    12    14    1
@<TRIPOS>MOLECULE
*****
 14 14 0 0 0
SMALL
GASTEIGER

@<TRIPOS>ATOM
      1 C          61.2719   86.9286    9.3467 C.ar    1  UNL1       -0.0115
      2 C          60.4066   86.1677    8.3864 C.ar    1  UNL1        0.0170
      3 C          59.3737   86.8901    7.5733 C.ar    1  UNL1        0.0986
      4 N          59.2060   88.3734    7.7205 N.ar    1  UNL1       -0.2417
      5 C          60.0714   89.1343    8.6809 C.ar    1  UNL1        0.1067
      6 C          61.1043   88.4118    9.4939 C.ar    1  UNL1        0.0569
      7 C          61.9336   85.6095   11.4850 C.3     1  UNL1        0.0050
      8 C          62.3049   86.2061   10.1598 C.3     1  UNL1        0.0271
      9 C          61.9697   89.1728   10.4543 C.1     1  UNL1       -0.0618
     10 C          62.8350   89.9337   11.4146 C.1     1  UNL1       -0.0689
     11 C          63.7003   90.6946   12.3750 C.3     1  UNL1        0.1432
     12 N          63.1548   91.1098   13.7091 N.3     1  UNL1       -0.3102
     13 H          62.4088   91.7922   13.5740 H       1  UNL1        0.1198
     14 H          63.9003   91.5269   14.2665 H       1  UNL1        0.1198
@<TRIPOS>BOND
     1     7     8    1
     2     8     1    1
     3     1     2   ar
     4     2     3   ar
     5     3     4   ar
     6     4     5   ar
     7     5     6   ar
     8     6     9    1
     9     9    10    3
    10    10    11    1
    11    11    12    1
    12     6     1   ar
    13    12    13    1
    14    12    14    1
@<TRIPOS>MOLECULE
*****
 14 14 0 0 0
SMALL
GASTEIGER

@<TRIPOS>ATOM
      1 C          63.1189   84.5271    9.7510 C.ar    1  UNL1       -0.0115
      2 C          62.8572   84.8847    8.3180 C.ar    1  UNL1        0.0170
      3 C          61.7962   85.8887    7.9773 C.ar    1  UNL1        0.0986
      4 N          60.9969   86.5352    9.0696 N.ar    1  UNL1       -0.2417
      5 C          61.2586   86.1776   10.5026 C.ar    1  UNL1        0.1067
      6 C          62.3196   85.1736   10.8433 C.ar    1  UNL1        0.0569
      7 C          63.8003   82.1030   10.3911 C.3     1  UNL1        0.0050
      8 C          64.1799   83.5230   10.0918 C.3     1  UNL1        0.0271
      9 C          62.5813   84.8160   12.2764 C.1     1  UNL1       -0.0618
     10 C          62.8431   84.4584   13.7095 C.1     1  UNL1       -0.0689
     11 C          63.1048   84.1008   15.1426 C.3     1  UNL1        0.1432
     12 N          62.8088   82.7156   15.6360 N.3     1  UNL1       -0.3102
     13 H          61.8031   82.5494   15.5996 H       1  UNL1        0.1198
     14 H          63.1344   82.6205   16.5979 H       1  UNL1        0.1198
@<TRIPOS>BOND
     1     7     8    1
     2     8     1    1
     3     1     2   ar
     4     2     3   ar
     5     3     4   ar
     6     4     5   ar
     7     5     6   ar
     8     6     9    1
     9     9    10    3
    10    10    11    1
    11    11    12    1
    12     6     1   ar
    13    12    13    1
    14    12    14    1
@<TRIPOS>MOLECULE
*****
 14 14 0 0 0
SMALL
GASTEIGER

@<TRIPOS>ATOM
      1 C          61.4248   88.0530    9.8088 C.ar    1  UNL1       -0.0115
      2 C          60.6001   89.0610    9.0647 C.ar    1  UNL1        0.0170
      3 C          59.6310   88.6080    8.0132 C.ar    1  UNL1        0.0986
      4 N          59.4865   87.1470    7.7060 N.ar    1  UNL1       -0.2417
      5 C          60.3111   86.1390    8.4502 C.ar    1  UNL1        0.1067
      6 C          61.2803   86.5920    9.5016 C.ar    1  UNL1        0.0569
      7 C          62.7576   89.9572   10.9698 C.3     1  UNL1        0.0050
      8 C          62.3940   88.5061   10.8603 C.3     1  UNL1        0.0271
      9 C          62.1050   85.5839   10.2458 C.1     1  UNL1       -0.0618
     10 C          62.9295   84.5758   10.9899 C.1     1  UNL1       -0.0689
     11 C          63.7542   83.5677   11.7341 C.3     1  UNL1        0.1432
     12 N          64.9123   82.8982   11.0556 N.3     1  UNL1       -0.3102
     13 H          64.5680   82.3102   10.2965 H       1  UNL1        0.1198
     14 H          65.4152   82.3222   11.7306 H       1  UNL1        0.1198
@<TRIPOS>BOND
     1     7     8    1
     2     8     1    1
     3     1     2   ar
     4     2     3   ar
     5     3     4   ar
     6     4     5   ar
     7     5     6   ar
     8     6     9    1
     9     9    10    3
    10    10    11    1
    11    11    12    1
    12     6     1   ar
    13    12    13    1
    14    12    14    1
@<TRIPOS>MOLECULE
*****
 14 14 0 0 0
SMALL
GASTEIGER

@<TRIPOS>ATOM
      1 C          60.6986   86.6061    8.7840 C.ar    1  UNL1       -0.0115
      2 C          61.2354   85.8216    9.9444 C.ar    1  UNL1        0.0170
      3 C          61.3607   86.4673   11.2925 C.ar    1  UNL1        0.0986
      4 N          60.9493   87.8975   11.4802 N.ar    1  UNL1       -0.2417
      5 C          60.4125   88.6819   10.3199 C.ar    1  UNL1        0.1067
      6 C          60.2872   88.0362    8.9718 C.ar    1  UNL1        0.0569
      7 C          61.6340   85.0147    6.9558 C.3     1  UNL1        0.0050
      8 C          60.5733   85.9604    7.4359 C.3     1  UNL1        0.0271
      9 C          59.7504   88.8208    7.8114 C.1     1  UNL1       -0.0618
     10 C          59.2136   89.6053    6.6511 C.1     1  UNL1       -0.0689
     11 C          58.6768   90.3899    5.4907 C.3     1  UNL1        0.1432
     12 N          58.8829   91.8743    5.4295 N.3     1  UNL1       -0.3102
     13 H          58.3693   92.3205    6.1894 H       1  UNL1        0.1198
     14 H          58.5427   92.2282    4.5354 H       1  UNL1        0.1198
@<TRIPOS>BOND
     1     7     8    1
     2     8     1    1
     3     1     2   ar
     4     2     3   ar
     5     3     4   ar
     6     4     5   ar
     7     5     6   ar
     8     6     9    1
     9     9    10    3
    10    10    11    1
    11    11    12    1
    12     6     1   ar
    13    12    13    1
    14    12    14    1
@<TRIPOS>MOLECULE
*****
 14 14 0 0 0
SMALL
GASTEIGER

@<TRIPOS>ATOM
      1 C          64.4295   91.5949   11.9459 C.ar    1  UNL1       -0.0115
      2 C          65.0667   92.3878   10.8435 C.ar    1  UNL1        0.0170
      3 C          66.3147   93.1757   11.1110 C.ar    1  UNL1        0.0986
      4 N          66.9255   93.1708   12.4809 N.ar    1  UNL1       -0.2417
      5 C          66.2884   92.3780   13.5834 C.ar    1  UNL1        0.1067
      6 C          65.0404   91.5900   13.3158 C.ar    1  UNL1        0.0569
      7 C          62.7600   90.5261   10.2665 C.3     1  UNL1        0.0050
      8 C          63.1815   90.8070   11.6784 C.3     1  UNL1        0.0271
      9 C          64.4032   90.7972   14.4183 C.1     1  UNL1       -0.0618
     10 C          63.7660   90.0043   15.5208 C.1     1  UNL1       -0.0689
     11 C          63.1288   89.2114   16.6233 C.3     1  UNL1        0.1432
     12 N          63.1260   87.7126   16.5642 N.3     1  UNL1       -0.3102
     13 H          62.5525   87.4044   15.7789 H       1  UNL1        0.1198
     14 H          62.7427   87.3389   17.4324 H       1  UNL1        0.1198
@<TRIPOS>BOND
     1     7     8    1
     2     8     1    1
     3     1     2   ar
     4     2     3   ar
     5     3     4   ar
     6     4     5   ar
     7     5     6   ar
     8     6     9    1
     9     9    10    3
    10    10    11    1
    11    11    12    1
    12     6     1   ar
    13    12    13    1
    14    12    14    1
@<TRIPOS>MOLECULE
*****
 14 14 0 0 0
SMALL
GASTEIGER

@<TRIPOS>ATOM
      1 C          64.9264   91.2611   14.0370 C.ar    1  UNL1       -0.0115
      2 C          65.9920   91.8574   14.9081 C.ar    1  UNL1        0.0170
      3 C          66.9111   92.9068   14.3569 C.ar    1  UNL1        0.0986
      4 N          66.7646   93.3600   12.9345 N.ar    1  UNL1       -0.2417
      5 C          65.6990   92.7637   12.0634 C.ar    1  UNL1        0.1067
      6 C          64.7799   91.7143   12.6147 C.ar    1  UNL1        0.0569
      7 C          64.3845   88.7626   14.4995 C.3     1  UNL1        0.0050
      8 C          64.0072   90.2117   14.5883 C.3     1  UNL1        0.0271
      9 C          63.7142   91.1180   11.7435 C.1     1  UNL1       -0.0618
     10 C          62.6486   90.5217   10.8723 C.1     1  UNL1       -0.0689
     11 C          61.5829   89.9255   10.0012 C.3     1  UNL1        0.1432
     12 N          60.1980   90.5014   10.0097 N.3     1  UNL1       -0.3102
     13 H          59.7734   90.3522   10.9251 H       1  UNL1        0.1198
     14 H          59.6342   90.0420    9.2945 H       1  UNL1        0.1198
@<TRIPOS>BOND
     1     7     8    1
     2     8     1    1
     3     1     2   ar
     4     2     3   ar
     5     3     4   ar
     6     4     5   ar
     7     5     6   ar
     8     6     9    1
     9     9    10    3
    10    10    11    1
    11    11    12    1
    12     6     1   ar
    13    12    13    1
    14    12    14    1
