@<TRIPOS>MOLECULE
*****
 33 36 0 0 0
SMALL
GASTEIGER

@<TRIPOS>ATOM
      1 C          65.7400   92.5881   12.1162 C.ar    1  UNL1        0.0701
      2 C          66.0101   92.3192   13.5669 C.ar    1  UNL1        0.1047
      3 N          64.9314   91.4112   14.0788 N.ar    1  UNL1       -0.2242
      4 N          64.6812   90.8128   15.4313 N.ar    1  UNL1       -0.1422
      5 C          63.4941   89.9221   15.6493 C.ar    1  UNL1        0.2211
      6 N          62.5573   89.6298   14.5149 N.ar    1  UNL1       -0.2060
      7 C          62.8076   90.2282   13.1624 C.ar    1  UNL1        0.1515
      8 C          63.9946   91.1189   12.9443 C.ar    1  UNL1        0.1107
      9 C          64.4944   91.8463   11.7314 C.ar    1  UNL1        0.0045
     10 C          63.8598   91.8339   10.3723 C.3     1  UNL1        0.0329
     11 N          67.2161   92.8511    9.9944 N.am    1  UNL1       -0.3008
     12 C          66.5699   93.4478   11.2094 C.2     1  UNL1        0.2471
     13 O          66.7534   94.9042   11.5176 O.2     1  UNL1       -0.2701
     14 H          67.0956   91.8952    9.7921 H       1  UNL1        0.1497
     15 C          68.0459   93.7108    9.0876 C.3     1  UNL1        0.0897
     16 C          67.4732   96.1446    8.3813 C.3     1  UNL1        0.0018
     17 C          67.3793   94.6666    8.1431 C.3     1  UNL1        0.0213
     18 N          61.8708   89.9360   12.0279 N.pl3   1  UNL1       -0.2969
     19 H          61.2220   90.6171   11.7373 H       1  UNL1        0.1536
     20 C          61.9223   88.6060   11.3363 C.ar    1  UNL1        0.0455
     21 C          62.4118   87.3952   12.0744 C.ar    1  UNL1        0.0188
     22 C          62.4634   86.0652   11.3828 C.ar    1  UNL1        0.0546
     23 C          62.0255   85.9459    9.9531 C.ar    1  UNL1        0.0043
     24 C          61.5361   87.1565    9.2150 C.ar    1  UNL1       -0.0029
     25 C          61.4845   88.4866    9.9066 C.ar    1  UNL1       -0.0084
     26 C          60.9951   89.6972    9.1685 C.3     1  UNL1        0.0323
     27 C          62.9528   84.8545   12.1209 C.2     1  UNL1        0.2458
     28 O          63.8519   85.0142   13.3109 O.2     1  UNL1       -0.2701
     29 N          62.5431   83.4842   11.6689 N.am    1  UNL1       -0.3025
     30 H          61.9530   83.3794   10.8878 H       1  UNL1        0.1497
     31 C          63.0325   82.2735   12.4069 C.3     1  UNL1        0.0720
     32 C          62.9329   80.8074   12.7082 C.3     1  UNL1        0.0213
     33 C          63.9798   81.6425   13.3839 C.3     1  UNL1        0.0213
@<TRIPOS>BOND
     1    16    17    1
     2    17    15    1
     3    15    11    1
     4    11    12   am
     5    12    13    2
     6    12     1    1
     7     1     2   ar
     8     2     3   ar
     9     3     4   ar
    10     4     5   ar
    11     5     6   ar
    12     6     7   ar
    13     7    18    1
    14    18    20    1
    15    20    21   ar
    16    21    22   ar
    17    22    27    1
    18    27    28    2
    19    27    29   am
    20    29    31    1
    21    31    32    1
    22    32    33    1
    23    22    23   ar
    24    23    24   ar
    25    24    25   ar
    26    25    26    1
    27     7     8   ar
    28     8     9   ar
    29     9    10    1
    30     9     1   ar
    31     8     3   ar
    32    25    20   ar
    33    33    31    1
    34    11    14    1
    35    18    19    1
    36    29    30    1
@<TRIPOS>MOLECULE
*****
 33 36 0 0 0
SMALL
GASTEIGER

@<TRIPOS>ATOM
      1 C          60.5567   87.8895    9.2554 C.ar    1  UNL1        0.0701
      2 C          61.1559   86.5583    9.6001 C.ar    1  UNL1        0.1047
      3 N          62.0067   86.7354   10.8227 N.ar    1  UNL1       -0.2242
      4 N          62.8387   85.7710   11.6149 N.ar    1  UNL1       -0.1422
      5 C          63.5973   86.2473   12.8180 C.ar    1  UNL1        0.2211
      6 N          63.5240   87.6880   13.2290 N.ar    1  UNL1       -0.2060
      7 C          62.6920   88.6525   12.4368 C.ar    1  UNL1        0.1515
      8 C          61.9333   88.1762   11.2337 C.ar    1  UNL1        0.1107
      9 C          61.0372   88.8894   10.2651 C.ar    1  UNL1        0.0045
     10 C          60.6837   90.3467   10.3000 C.3     1  UNL1        0.0329
     11 N          59.8028   89.4296    7.3036 N.am    1  UNL1       -0.3008
     12 C          59.6383   88.1714    8.1034 C.2     1  UNL1        0.2471
     13 O          58.5556   87.1950    7.7512 O.2     1  UNL1       -0.2701
     14 H          60.5134   90.0705    7.5348 H       1  UNL1        0.1497
     15 C          58.8844   89.7115    6.1516 C.3     1  UNL1        0.0897
     16 C          57.7244   91.6240    4.8299 C.3     1  UNL1        0.0018
     17 C          58.9599   91.0282    5.4370 C.3     1  UNL1        0.0213
     18 N          62.6186   90.0932   12.8478 N.pl3   1  UNL1       -0.2969
     19 H          61.7457   90.5449   12.9050 H       1  UNL1        0.1536
     20 C          63.8751   90.8457   13.1717 C.ar    1  UNL1        0.0455
     21 C          64.6000   91.5946   12.0929 C.ar    1  UNL1        0.0188
     22 C          65.8565   92.3471   12.4167 C.ar    1  UNL1        0.0546
     23 C          66.3882   92.3506   13.8193 C.ar    1  UNL1        0.0043
     24 C          65.6634   91.6017   14.8981 C.ar    1  UNL1       -0.0029
     25 C          64.4068   90.8492   14.5742 C.ar    1  UNL1       -0.0084
     26 C          63.6821   90.1002   15.6530 C.3     1  UNL1        0.0323
     27 C          66.5814   93.0961   11.3380 C.2     1  UNL1        0.2458
     28 O          67.9194   92.6152   10.8603 O.2     1  UNL1       -0.2701
     29 N          65.9681   94.3260   10.7369 N.am    1  UNL1       -0.3025
     30 H          65.0898   94.6416   11.0505 H       1  UNL1        0.1497
     31 C          66.6929   95.0750    9.6582 C.3     1  UNL1        0.0720
     32 C          67.3258   96.3380    9.1542 C.3     1  UNL1        0.0213
     33 C          67.3153   95.1093    8.2939 C.3     1  UNL1        0.0213
@<TRIPOS>BOND
     1    16    17    1
     2    17    15    1
     3    15    11    1
     4    11    12   am
     5    12    13    2
     6    12     1    1
     7     1     2   ar
     8     2     3   ar
     9     3     4   ar
    10     4     5   ar
    11     5     6   ar
    12     6     7   ar
    13     7    18    1
    14    18    20    1
    15    20    21   ar
    16    21    22   ar
    17    22    27    1
    18    27    28    2
    19    27    29   am
    20    29    31    1
    21    31    32    1
    22    32    33    1
    23    22    23   ar
    24    23    24   ar
    25    24    25   ar
    26    25    26    1
    27     7     8   ar
    28     8     9   ar
    29     9    10    1
    30     9     1   ar
    31     8     3   ar
    32    25    20   ar
    33    33    31    1
    34    11    14    1
    35    18    19    1
    36    29    30    1
@<TRIPOS>MOLECULE
*****
 33 36 0 0 0
SMALL
GASTEIGER

@<TRIPOS>ATOM
      1 C          62.4719   85.7149   10.6728 C.ar    1  UNL1        0.0701
      2 C          61.7530   86.2722    9.4800 C.ar    1  UNL1        0.1047
      3 N          61.3882   87.6955    9.7819 N.ar    1  UNL1       -0.2242
      4 N          60.6704   88.7396    8.9790 N.ar    1  UNL1       -0.1422
      5 C          60.4460   90.1060    9.5554 C.ar    1  UNL1        0.2211
      6 N          60.9394   90.4284   10.9348 N.ar    1  UNL1       -0.2060
      7 C          61.6571   89.3844   11.7377 C.ar    1  UNL1        0.1515
      8 C          61.8815   88.0179   11.1613 C.ar    1  UNL1        0.1107
      9 C          62.5513   86.7939   11.7119 C.ar    1  UNL1        0.0045
     10 C          63.1886   86.6704   13.0641 C.3     1  UNL1        0.0329
     11 N          62.7013   83.5064   12.0217 N.am    1  UNL1       -0.3008
     12 C          63.0158   84.3232   10.8036 C.2     1  UNL1        0.2471
     13 O          63.8743   83.7482    9.7162 O.2     1  UNL1       -0.2701
     14 H          62.1379   83.8837   12.7354 H       1  UNL1        0.1497
     15 C          63.2453   82.1146   12.1525 C.3     1  UNL1        0.0897
     16 C          61.6835   81.3045   14.0642 C.3     1  UNL1        0.0018
     17 C          62.4089   81.0382   12.7785 C.3     1  UNL1        0.0213
     18 N          62.1505   89.7068   13.1171 N.pl3   1  UNL1       -0.2969
     19 H          61.6097   89.4630   13.9028 H       1  UNL1        0.1536
     20 C          63.4677   90.4007   13.2994 C.ar    1  UNL1        0.0455
     21 C          63.9811   91.3265   12.2366 C.ar    1  UNL1        0.0188
     22 C          65.2984   92.0204   12.4189 C.ar    1  UNL1        0.0546
     23 C          66.1023   91.7885   13.6639 C.ar    1  UNL1        0.0043
     24 C          65.5890   90.8627   14.7265 C.ar    1  UNL1       -0.0029
     25 C          64.2717   90.1688   14.5443 C.ar    1  UNL1       -0.0084
     26 C          63.7584   89.2430   15.6070 C.3     1  UNL1        0.0323
     27 C          65.8118   92.9463   11.3562 C.2     1  UNL1        0.2458
     28 O          66.3891   92.3875   10.0896 O.2     1  UNL1       -0.2701
     29 N          65.7478   94.4310   11.5602 N.am    1  UNL1       -0.3025
     30 H          65.3689   94.7978   12.3915 H       1  UNL1        0.1497
     31 C          66.2612   95.3568   10.4976 C.3     1  UNL1        0.0720
     32 C          66.1890   96.6668    9.7704 C.3     1  UNL1        0.0213
     33 C          67.2225   95.6506    9.3842 C.3     1  UNL1        0.0213
@<TRIPOS>BOND
     1    16    17    1
     2    17    15    1
     3    15    11    1
     4    11    12   am
     5    12    13    2
     6    12     1    1
     7     1     2   ar
     8     2     3   ar
     9     3     4   ar
    10     4     5   ar
    11     5     6   ar
    12     6     7   ar
    13     7    18    1
    14    18    20    1
    15    20    21   ar
    16    21    22   ar
    17    22    27    1
    18    27    28    2
    19    27    29   am
    20    29    31    1
    21    31    32    1
    22    32    33    1
    23    22    23   ar
    24    23    24   ar
    25    24    25   ar
    26    25    26    1
    27     7     8   ar
    28     8     9   ar
    29     9    10    1
    30     9     1   ar
    31     8     3   ar
    32    25    20   ar
    33    33    31    1
    34    11    14    1
    35    18    19    1
    36    29    30    1
@<TRIPOS>MOLECULE
*****
 33 36 0 0 0
SMALL
GASTEIGER

@<TRIPOS>ATOM
      1 C          63.1173   83.2764   14.6339 C.ar    1  UNL1        0.0701
      2 C          62.3765   83.5022   15.9185 C.ar    1  UNL1        0.1047
      3 N          62.5557   84.9390   16.3105 N.ar    1  UNL1       -0.2242
      4 N          62.0534   85.7299   17.4819 N.ar    1  UNL1       -0.1422
      5 C          62.4027   87.1829   17.6110 C.ar    1  UNL1        0.2211
      6 N          63.2542   87.8450   16.5686 N.ar    1  UNL1       -0.2060
      7 C          63.7564   87.0541   15.3972 C.ar    1  UNL1        0.1515
      8 C          63.4072   85.6011   15.2682 C.ar    1  UNL1        0.1107
      9 C          63.7543   84.5736   14.2320 C.ar    1  UNL1        0.0045
     10 C          64.5914   84.8030   13.0087 C.3     1  UNL1        0.0329
     11 N          62.5323   81.8390   12.5503 N.am    1  UNL1       -0.3008
     12 C          63.2056   81.9808   13.8831 C.2     1  UNL1        0.2471
     13 O          63.9673   80.8271   14.4651 O.2     1  UNL1       -0.2701
     14 H          62.0323   82.5962   12.1683 H       1  UNL1        0.1497
     15 C          62.6206   80.5434   11.7995 C.3     1  UNL1        0.0897
     16 C          62.8066   79.3171    9.5166 C.3     1  UNL1        0.0018
     17 C          63.0314   80.5392   10.3568 C.3     1  UNL1        0.0213
     18 N          64.6080   87.7163   14.3549 N.pl3   1  UNL1       -0.2969
     19 H          65.5704   87.5153   14.3051 H       1  UNL1        0.1536
     20 C          63.9931   88.6846   13.3884 C.ar    1  UNL1        0.0455
     21 C          63.0925   88.1857   12.2974 C.ar    1  UNL1        0.0188
     22 C          62.4776   89.1540   11.3309 C.ar    1  UNL1        0.0546
     23 C          62.7632   90.6213   11.4553 C.ar    1  UNL1        0.0043
     24 C          63.6637   91.1203   12.5462 C.ar    1  UNL1       -0.0029
     25 C          64.2786   90.1519   13.5128 C.ar    1  UNL1       -0.0084
     26 C          65.1791   90.6509   14.6037 C.3     1  UNL1        0.0323
     27 C          61.5771   88.6551   10.2399 C.2     1  UNL1        0.2458
     28 O          60.6688   89.6090    9.5222 O.2     1  UNL1       -0.2701
     29 N          61.5848   87.2023    9.8668 N.am    1  UNL1       -0.3025
     30 H          62.1809   86.5762   10.3379 H       1  UNL1        0.1497
     31 C          60.6843   86.7033    8.7759 C.3     1  UNL1        0.0720
     32 C          60.4579   85.8354    7.5736 C.3     1  UNL1        0.0213
     33 C          59.3511   86.7071    8.0885 C.3     1  UNL1        0.0213
@<TRIPOS>BOND
     1    16    17    1
     2    17    15    1
     3    15    11    1
     4    11    12   am
     5    12    13    2
     6    12     1    1
     7     1     2   ar
     8     2     3   ar
     9     3     4   ar
    10     4     5   ar
    11     5     6   ar
    12     6     7   ar
    13     7    18    1
    14    18    20    1
    15    20    21   ar
    16    21    22   ar
    17    22    27    1
    18    27    28    2
    19    27    29   am
    20    29    31    1
    21    31    32    1
    22    32    33    1
    23    22    23   ar
    24    23    24   ar
    25    24    25   ar
    26    25    26    1
    27     7     8   ar
    28     8     9   ar
    29     9    10    1
    30     9     1   ar
    31     8     3   ar
    32    25    20   ar
    33    33    31    1
    34    11    14    1
    35    18    19    1
    36    29    30    1
@<TRIPOS>MOLECULE
*****
 33 36 0 0 0
SMALL
GASTEIGER

@<TRIPOS>ATOM
      1 C          62.0694   86.4770   10.5486 C.ar    1  UNL1        0.0701
      2 C          62.7613   85.3821   11.3051 C.ar    1  UNL1        0.1047
      3 N          63.3276   85.9733   12.5620 N.ar    1  UNL1       -0.2242
      4 N          64.1104   85.3706   13.6906 N.ar    1  UNL1       -0.1422
      5 C          64.5513   86.2282   14.8396 C.ar    1  UNL1        0.2211
      6 N          64.2094   87.6886   14.8599 N.ar    1  UNL1       -0.2060
      7 C          63.4265   88.2913   13.7312 C.ar    1  UNL1        0.1515
      8 C          62.9857   87.4337   12.5823 C.ar    1  UNL1        0.1107
      9 C          62.2080   87.7450   11.3380 C.ar    1  UNL1        0.0045
     10 C          61.6645   89.0884   10.9509 C.3     1  UNL1        0.0329
     11 N          59.9434   86.7925    9.0890 N.am    1  UNL1       -0.3008
     12 C          61.3629   86.3299    9.2336 C.2     1  UNL1        0.2471
     13 O          62.0758   85.7201    8.0633 O.2     1  UNL1       -0.2701
     14 H          59.4754   87.1927    9.8572 H       1  UNL1        0.1497
     15 C          59.2368   86.6453    7.7740 C.3     1  UNL1        0.0897
     16 C          59.4779   89.1829    7.2713 C.3     1  UNL1        0.0018
     17 C          59.2288   87.7823    6.7956 C.3     1  UNL1        0.0213
     18 N          63.0846   89.7517   13.7515 N.pl3   1  UNL1       -0.2969
     19 H          62.1513   90.0404   13.6300 H       1  UNL1        0.1536
     20 C          64.1646   90.7721   13.9570 C.ar    1  UNL1        0.0455
     21 C          64.8990   91.3350   12.7764 C.ar    1  UNL1        0.0188
     22 C          65.9790   92.3554   12.9818 C.ar    1  UNL1        0.0546
     23 C          66.3248   92.8129   14.3679 C.ar    1  UNL1        0.0043
     24 C          65.5904   92.2500   15.5485 C.ar    1  UNL1       -0.0029
     25 C          64.5103   91.2296   15.3431 C.ar    1  UNL1       -0.0084
     26 C          63.7760   90.6666   16.5237 C.3     1  UNL1        0.0323
     27 C          66.7134   92.9184   11.8012 C.2     1  UNL1        0.2458
     28 O          67.9906   92.2818   11.3392 O.2     1  UNL1       -0.2701
     29 N          66.1706   94.1180   11.0827 N.am    1  UNL1       -0.3025
     30 H          65.3323   94.5358   11.3859 H       1  UNL1        0.1497
     31 C          66.9049   94.6810    9.9021 C.3     1  UNL1        0.0720
     32 C          67.6491   94.4747    8.6162 C.3     1  UNL1        0.0213
     33 C          67.4325   95.8623    9.1431 C.3     1  UNL1        0.0213
@<TRIPOS>BOND
     1    16    17    1
     2    17    15    1
     3    15    11    1
     4    11    12   am
     5    12    13    2
     6    12     1    1
     7     1     2   ar
     8     2     3   ar
     9     3     4   ar
    10     4     5   ar
    11     5     6   ar
    12     6     7   ar
    13     7    18    1
    14    18    20    1
    15    20    21   ar
    16    21    22   ar
    17    22    27    1
    18    27    28    2
    19    27    29   am
    20    29    31    1
    21    31    32    1
    22    32    33    1
    23    22    23   ar
    24    23    24   ar
    25    24    25   ar
    26    25    26    1
    27     7     8   ar
    28     8     9   ar
    29     9    10    1
    30     9     1   ar
    31     8     3   ar
    32    25    20   ar
    33    33    31    1
    34    11    14    1
    35    18    19    1
    36    29    30    1
@<TRIPOS>MOLECULE
*****
 33 36 0 0 0
SMALL
GASTEIGER

@<TRIPOS>ATOM
      1 C          62.5871   85.2823   11.1593 C.ar    1  UNL1        0.0701
      2 C          61.6739   85.2883    9.9694 C.ar    1  UNL1        0.1047
      3 N          61.0567   86.6515    9.8656 N.ar    1  UNL1       -0.2242
      4 N          60.0792   87.2392    8.8914 N.ar    1  UNL1       -0.1422
      5 C          59.6335   88.6633    9.0430 C.ar    1  UNL1        0.2211
      6 N          60.1653   89.4999   10.1688 N.ar    1  UNL1       -0.2060
      7 C          61.1428   88.9122   11.1430 C.ar    1  UNL1        0.1515
      8 C          61.5885   87.4880   10.9914 C.ar    1  UNL1        0.1107
      9 C          62.5343   86.6418   11.7909 C.ar    1  UNL1        0.0045
     10 C          63.2940   87.0785   13.0084 C.3     1  UNL1        0.0329
     11 N          63.1871   83.5563   13.0062 N.am    1  UNL1       -0.3008
     12 C          63.4088   84.1207   11.6343 C.2     1  UNL1        0.2471
     13 O          64.4522   83.5236   10.7373 O.2     1  UNL1       -0.2701
     14 H          62.5022   83.9482   13.5949 H       1  UNL1        0.1497
     15 C          64.0088   82.3947   13.4811 C.3     1  UNL1        0.0897
     16 C          62.6444   80.3917   12.5450 C.3     1  UNL1        0.0018
     17 C          63.3669   81.0537   13.6806 C.3     1  UNL1        0.0213
     18 N          61.6746   89.7487   12.2688 N.pl3   1  UNL1       -0.2969
     19 H          61.2216   89.7431   13.1428 H       1  UNL1        0.1536
     20 C          62.8966   90.5938   12.0628 C.ar    1  UNL1        0.0455
     21 C          63.7735   90.9413   13.2292 C.ar    1  UNL1        0.0188
     22 C          64.9955   91.7864   13.0233 C.ar    1  UNL1        0.0546
     23 C          65.3407   92.2841   11.6511 C.ar    1  UNL1        0.0043
     24 C          64.4639   91.9367   10.4847 C.ar    1  UNL1       -0.0029
     25 C          63.2418   91.0915   10.6906 C.ar    1  UNL1       -0.0084
     26 C          62.3650   90.7441    9.5242 C.3     1  UNL1        0.0323
     27 C          65.8724   92.1339   14.1897 C.2     1  UNL1        0.2458
     28 O          65.2962   92.1796   15.5739 O.2     1  UNL1       -0.2701
     29 N          67.3255   92.4356   13.9719 N.am    1  UNL1       -0.3025
     30 H          67.7037   92.4056   13.0635 H       1  UNL1        0.1497
     31 C          68.2024   92.7830   15.1382 C.3     1  UNL1        0.0720
     32 C          69.0072   93.7914   15.9034 C.3     1  UNL1        0.0213
     33 C          68.9163   92.3765   16.3932 C.3     1  UNL1        0.0213
@<TRIPOS>BOND
     1    16    17    1
     2    17    15    1
     3    15    11    1
     4    11    12   am
     5    12    13    2
     6    12     1    1
     7     1     2   ar
     8     2     3   ar
     9     3     4   ar
    10     4     5   ar
    11     5     6   ar
    12     6     7   ar
    13     7    18    1
    14    18    20    1
    15    20    21   ar
    16    21    22   ar
    17    22    27    1
    18    27    28    2
    19    27    29   am
    20    29    31    1
    21    31    32    1
    22    32    33    1
    23    22    23   ar
    24    23    24   ar
    25    24    25   ar
    26    25    26    1
    27     7     8   ar
    28     8     9   ar
    29     9    10    1
    30     9     1   ar
    31     8     3   ar
    32    25    20   ar
    33    33    31    1
    34    11    14    1
    35    18    19    1
    36    29    30    1
