@<TRIPOS>MOLECULE
*****
 22 25 0 0 0
SMALL
GASTEIGER

@<TRIPOS>ATOM
      1 O          63.1621   82.6133   15.0794 O.2     1  UNL1       -0.2448
      2 C          63.2733   83.8137   14.1870 C.2     1  UNL1        0.3428
      3 C          63.6072   83.6405   12.7349 C.2     1  UNL1        0.0959
      4 C          64.5385   82.6144   12.1606 C.2     1  UNL1        0.1049
      5 N          64.5752   82.8027   10.6730 N.2     1  UNL1       -0.2476
      6 C          63.6667   83.9453   10.3278 C.2     1  UNL1        0.0637
      7 C          63.3068   84.5810    9.0177 C.3     1  UNL1        0.0741
      8 C          62.3487   85.7346    8.9820 C.2     1  UNL1        0.0098
      9 C          61.7505   86.2524   10.2564 C.2     1  UNL1        0.1363
     10 F          60.7923   87.4060   10.2207 F       1  UNL1       -0.2045
     11 C          62.1103   85.6166   11.5664 C.2     1  UNL1        0.0307
     12 C          63.0684   84.4630   11.6021 C.2     1  UNL1        0.0239
     13 O          63.0506   85.1875   14.7467 O.3     1  UNL1       -0.4454
     14 C          64.2086   86.1265   14.9127 C.3     1  UNL1        0.2087
     15 C          63.9617   87.5847   15.1627 C.3     1  UNL1        0.0445
     16 C          64.3005   88.5946   14.1066 C.3     1  UNL1        0.0210
     17 C          64.0536   90.0529   14.3567 C.3     1  UNL1        0.0722
     18 N          63.4679   90.5013   15.6628 N.3     1  UNL1       -0.2727
     19 C          63.1290   89.4914   16.7188 C.3     1  UNL1        0.0722
     20 C          63.3760   88.0331   16.4688 C.3     1  UNL1        0.0210
     21 C          63.5852   89.6914   15.5716 C.3     1  UNL1        0.0722
     22 C          63.8084   88.3728   15.3456 C.3     1  UNL1        0.0210
@<TRIPOS>BOND
     1     1     2    2
     2     2    13    1
     3    13    14    1
     4    14    15    1
     5    15    16    1
     6    16    17    1
     7    17    18    1
     8    18    19    1
     9    19    20    1
    10    18    21    1
    11    21    22    1
    12     2     3    1
    13     3     4    2
    14     4     5    1
    15     5     6    2
    16     6     7    1
    17     7     8    1
    18     8     9    2
    19     9    10    1
    20     9    11    1
    21    11    12    2
    22    20    15    1
    23    12     3    1
    24    22    15    1
    25    12     6    1
@<TRIPOS>MOLECULE
*****
 22 25 0 0 0
SMALL
GASTEIGER

@<TRIPOS>ATOM
      1 O          63.8371   86.9058   13.3647 O.2     1  UNL1       -0.2448
      2 C          62.8171   85.8709   12.9926 C.2     1  UNL1        0.3428
      3 C          62.7836   84.5569   13.7154 C.2     1  UNL1        0.0959
      4 C          62.7125   84.3700   15.2020 C.2     1  UNL1        0.1049
      5 N          62.7002   82.8968   15.4838 N.2     1  UNL1       -0.2476
      6 C          62.7636   82.1732   14.1714 C.2     1  UNL1        0.0637
      7 C          62.7812   80.7126   13.8304 C.3     1  UNL1        0.0741
      8 C          62.8502   80.2781   12.3964 C.2     1  UNL1        0.0098
      9 C          62.9018   81.3042   11.3034 C.2     1  UNL1        0.1363
     10 F          62.9709   80.8696    9.8694 F       1  UNL1       -0.2045
     11 C          62.8843   82.7647   11.6445 C.2     1  UNL1        0.0307
     12 C          62.8152   83.1993   13.0784 C.2     1  UNL1        0.0239
     13 O          61.8306   86.1500   11.8976 O.3     1  UNL1       -0.4454
     14 C          62.2836   86.8143   10.6313 C.3     1  UNL1        0.2087
     15 C          61.8992   86.2358    9.3019 C.3     1  UNL1        0.0445
     16 C          60.5109   86.4353    8.7702 C.3     1  UNL1        0.0210
     17 C          60.1265   85.8567    7.4407 C.3     1  UNL1        0.0722
     18 N          61.1305   85.0786    6.6429 N.3     1  UNL1       -0.2727
     19 C          62.5189   84.8790    7.1745 C.3     1  UNL1        0.0722
     20 C          62.9032   85.4577    8.5041 C.3     1  UNL1        0.0210
     21 C          61.3875   85.3766    7.3661 C.3     1  UNL1        0.0722
     22 C          61.7351   85.8998    8.5683 C.3     1  UNL1        0.0210
@<TRIPOS>BOND
     1     1     2    2
     2     2    13    1
     3    13    14    1
     4    14    15    1
     5    15    16    1
     6    16    17    1
     7    17    18    1
     8    18    19    1
     9    19    20    1
    10    18    21    1
    11    21    22    1
    12     2     3    1
    13     3     4    2
    14     4     5    1
    15     5     6    2
    16     6     7    1
    17     7     8    1
    18     8     9    2
    19     9    10    1
    20     9    11    1
    21    11    12    2
    22    20    15    1
    23    12     3    1
    24    22    15    1
    25    12     6    1
@<TRIPOS>MOLECULE
*****
 22 25 0 0 0
SMALL
GASTEIGER

@<TRIPOS>ATOM
      1 O          63.1858   88.2507   16.3599 O.2     1  UNL1       -0.2448
      2 C          64.0030   88.2215   15.1025 C.2     1  UNL1        0.3428
      3 C          64.1369   89.4595   14.2660 C.2     1  UNL1        0.0959
      4 C          64.8055   90.7363   14.6816 C.2     1  UNL1        0.1049
      5 N          64.7076   91.7038   13.5396 N.2     1  UNL1       -0.2476
      6 C          63.9784   91.0249   12.4182 C.2     1  UNL1        0.0637
      7 C          63.5901   91.4907   11.0462 C.3     1  UNL1        0.0741
      8 C          62.8491   90.5693   10.1233 C.2     1  UNL1        0.0098
      9 C          62.4964   89.1822   10.5723 C.2     1  UNL1        0.1363
     10 F          61.7553   88.2608    9.6492 F       1  UNL1       -0.2045
     11 C          62.8847   88.7165   11.9442 C.2     1  UNL1        0.0307
     12 C          63.6258   89.6379   12.8671 C.2     1  UNL1        0.0239
     13 O          64.6863   86.9543   14.6814 O.3     1  UNL1       -0.4454
     14 C          63.9361   85.6555   14.7008 C.3     1  UNL1        0.2087
     15 C          63.7538   84.8757   13.4325 C.3     1  UNL1        0.0445
     16 C          64.5921   83.6593   13.1728 C.3     1  UNL1        0.0210
     17 C          64.4097   82.8795   11.9045 C.3     1  UNL1        0.0722
     18 N          63.3890   83.3162   10.8957 N.3     1  UNL1       -0.2727
     19 C          62.5507   84.5327   11.1554 C.3     1  UNL1        0.0722
     20 C          62.7331   85.3125   12.4238 C.3     1  UNL1        0.0210
     21 C          63.4529   83.7755   11.5761 C.3     1  UNL1        0.0722
     22 C          63.6177   84.4806   12.7230 C.3     1  UNL1        0.0210
@<TRIPOS>BOND
     1     1     2    2
     2     2    13    1
     3    13    14    1
     4    14    15    1
     5    15    16    1
     6    16    17    1
     7    17    18    1
     8    18    19    1
     9    19    20    1
    10    18    21    1
    11    21    22    1
    12     2     3    1
    13     3     4    2
    14     4     5    1
    15     5     6    2
    16     6     7    1
    17     7     8    1
    18     8     9    2
    19     9    10    1
    20     9    11    1
    21    11    12    2
    22    20    15    1
    23    12     3    1
    24    22    15    1
    25    12     6    1
@<TRIPOS>MOLECULE
*****
 22 25 0 0 0
SMALL
GASTEIGER

@<TRIPOS>ATOM
      1 O          60.3540   89.7970   11.8527 O.2     1  UNL1       -0.2448
      2 C          61.4122   89.9397   10.7993 C.2     1  UNL1        0.3428
      3 C          62.6754   90.6900   11.1019 C.2     1  UNL1        0.0959
      4 C          63.4379   91.5556   10.1432 C.2     1  UNL1        0.1049
      5 N          64.6316   92.1069   10.8651 N.2     1  UNL1       -0.2476
      6 C          64.6068   91.5820   12.2700 C.2     1  UNL1        0.0637
      7 C          65.5289   91.7882   13.4350 C.3     1  UNL1        0.0741
      8 C          65.2420   91.1188   14.7462 C.2     1  UNL1        0.0098
      9 C          64.0330   90.2431   14.8926 C.2     1  UNL1        0.1363
     10 F          63.7462   89.5736   16.2040 F       1  UNL1       -0.2045
     11 C          63.1109   90.0368   13.7277 C.2     1  UNL1        0.0307
     12 C          63.3978   90.7062   12.4164 C.2     1  UNL1        0.0239
     13 O          61.2072   89.3322    9.4432 O.3     1  UNL1       -0.4454
     14 C          60.6450   87.9471    9.3191 C.3     1  UNL1        0.2087
     15 C          61.4648   86.7643    9.7420 C.3     1  UNL1        0.0445
     16 C          62.3231   86.0500    8.7405 C.3     1  UNL1        0.0210
     17 C          63.1429   84.8672    9.1634 C.3     1  UNL1        0.0722
     18 N          63.1045   84.3986   10.5879 N.3     1  UNL1       -0.2727
     19 C          62.2462   85.1130   11.5894 C.3     1  UNL1        0.0722
     20 C          61.4263   86.2958   11.1664 C.3     1  UNL1        0.0210
     21 C          62.6379   85.0515   10.4032 C.3     1  UNL1        0.0722
     22 C          61.8966   86.1210   10.0209 C.3     1  UNL1        0.0210
@<TRIPOS>BOND
     1     1     2    2
     2     2    13    1
     3    13    14    1
     4    14    15    1
     5    15    16    1
     6    16    17    1
     7    17    18    1
     8    18    19    1
     9    19    20    1
    10    18    21    1
    11    21    22    1
    12     2     3    1
    13     3     4    2
    14     4     5    1
    15     5     6    2
    16     6     7    1
    17     7     8    1
    18     8     9    2
    19     9    10    1
    20     9    11    1
    21    11    12    2
    22    20    15    1
    23    12     3    1
    24    22    15    1
    25    12     6    1
@<TRIPOS>MOLECULE
*****
 22 25 0 0 0
SMALL
GASTEIGER

@<TRIPOS>ATOM
      1 O          64.6805   82.5545   10.2920 O.2     1  UNL1       -0.2448
      2 C          63.6492   83.4667   10.8869 C.2     1  UNL1        0.3428
      3 C          63.1569   83.2322   12.2843 C.2     1  UNL1        0.0959
      4 C          62.3854   82.0363   12.7582 C.2     1  UNL1        0.1049
      5 N          62.1014   82.2174   14.2198 N.2     1  UNL1       -0.2476
      6 C          62.6973   83.5252   14.6493 C.2     1  UNL1        0.0637
      7 C          62.7302   84.2260   15.9751 C.3     1  UNL1        0.0741
      8 C          63.4154   85.5540   16.1047 C.2     1  UNL1        0.0098
      9 C          64.0678   86.1812   14.9084 C.2     1  UNL1        0.1363
     10 F          64.7531   87.5093   15.0380 F       1  UNL1       -0.2045
     11 C          64.0349   85.4804   13.5826 C.2     1  UNL1        0.0307
     12 C          63.3497   84.1524   13.4531 C.2     1  UNL1        0.0239
     13 O          63.1101   84.6137   10.0844 O.3     1  UNL1       -0.4454
     14 C          61.8546   85.3094   10.5201 C.3     1  UNL1        0.2087
     15 C          61.6938   86.7823   10.2868 C.3     1  UNL1        0.0445
     16 C          62.4891   87.7616   11.0983 C.3     1  UNL1        0.0210
     17 C          62.3282   89.2345   10.8649 C.3     1  UNL1        0.0722
     18 N          61.3721   89.7283    9.8199 N.3     1  UNL1       -0.2727
     19 C          60.5768   88.7491    9.0083 C.3     1  UNL1        0.0722
     20 C          60.7377   87.2761    9.2418 C.3     1  UNL1        0.0210
     21 C          61.4262   88.9118    9.9118 C.3     1  UNL1        0.0722
     22 C          61.5716   87.5799   10.1228 C.3     1  UNL1        0.0210
@<TRIPOS>BOND
     1     1     2    2
     2     2    13    1
     3    13    14    1
     4    14    15    1
     5    15    16    1
     6    16    17    1
     7    17    18    1
     8    18    19    1
     9    19    20    1
    10    18    21    1
    11    21    22    1
    12     2     3    1
    13     3     4    2
    14     4     5    1
    15     5     6    2
    16     6     7    1
    17     7     8    1
    18     8     9    2
    19     9    10    1
    20     9    11    1
    21    11    12    2
    22    20    15    1
    23    12     3    1
    24    22    15    1
    25    12     6    1
@<TRIPOS>MOLECULE
*****
 22 25 0 0 0
SMALL
GASTEIGER

@<TRIPOS>ATOM
      1 O          63.2372   90.3599   16.8637 O.2     1  UNL1       -0.2448
      2 C          63.5189   89.5579   15.6279 C.2     1  UNL1        0.3428
      3 C          63.7693   90.2539   14.3229 C.2     1  UNL1        0.0959
      4 C          63.0687   89.9750   13.0263 C.2     1  UNL1        0.1049
      5 N          63.6307   90.8997   11.9876 N.2     1  UNL1       -0.2476
      6 C          64.6787   91.7501   12.6422 C.2     1  UNL1        0.0637
      7 C          65.5661   92.8362   12.1105 C.3     1  UNL1        0.0741
      8 C          66.5391   93.5233   13.0222 C.2     1  UNL1        0.0098
      9 C          66.6247   93.1241   14.4656 C.2     1  UNL1        0.1363
     10 F          67.5978   93.8112   15.3773 F       1  UNL1       -0.2045
     11 C          65.7374   92.0380   14.9973 C.2     1  UNL1        0.0307
     12 C          64.7644   91.3509   14.0856 C.2     1  UNL1        0.0239
     13 O          63.5501   88.0597   15.6970 O.3     1  UNL1       -0.4454
     14 C          64.4679   87.2864   14.7972 C.3     1  UNL1        0.2087
     15 C          64.0757   85.9186   14.3227 C.3     1  UNL1        0.0445
     16 C          63.3750   85.7534   13.0068 C.3     1  UNL1        0.0210
     17 C          62.9829   84.3855   12.5324 C.3     1  UNL1        0.0722
     18 N          63.2915   83.1827   13.3739 N.3     1  UNL1       -0.2727
     19 C          63.9922   83.3479   14.6898 C.3     1  UNL1        0.0722
     20 C          64.3843   84.7158   15.1643 C.3     1  UNL1        0.0210
     21 C          63.5259   83.9121   13.6757 C.3     1  UNL1        0.0722
     22 C          63.8805   85.1489   14.1047 C.3     1  UNL1        0.0210
@<TRIPOS>BOND
     1     1     2    2
     2     2    13    1
     3    13    14    1
     4    14    15    1
     5    15    16    1
     6    16    17    1
     7    17    18    1
     8    18    19    1
     9    19    20    1
    10    18    21    1
    11    21    22    1
    12     2     3    1
    13     3     4    2
    14     4     5    1
    15     5     6    2
    16     6     7    1
    17     7     8    1
    18     8     9    2
    19     9    10    1
    20     9    11    1
    21    11    12    2
    22    20    15    1
    23    12     3    1
    24    22    15    1
    25    12     6    1
@<TRIPOS>MOLECULE
*****
 22 25 0 0 0
SMALL
GASTEIGER

@<TRIPOS>ATOM
      1 O          62.9534   84.6091   10.6031 O.2     1  UNL1       -0.2448
      2 C          62.6448   85.6839   11.6028 C.2     1  UNL1        0.3428
      3 C          62.2601   87.0559   11.1343 C.2     1  UNL1        0.0959
      4 C          62.7610   88.3527   11.6979 C.2     1  UNL1        0.1049
      5 N          62.1175   89.4703   10.9318 N.2     1  UNL1       -0.2476
      6 C          61.2189   88.8643    9.8949 C.2     1  UNL1        0.0637
      7 C          60.3317   89.4784    8.8529 C.3     1  UNL1        0.0741
      8 C          59.5327   88.6004    7.9361 C.2     1  UNL1        0.0098
      9 C          59.6209   87.1083    8.0612 C.2     1  UNL1        0.1363
     10 F          58.8218   86.2302    7.1443 F       1  UNL1       -0.2045
     11 C          60.5080   86.4941    9.1032 C.2     1  UNL1        0.0307
     12 C          61.3070   87.3721   10.0200 C.2     1  UNL1        0.0239
     13 O          62.7208   85.3866   13.0712 O.3     1  UNL1       -0.4454
     14 C          63.5338   84.2246   13.5600 C.3     1  UNL1        0.2087
     15 C          62.9839   82.8323   13.4659 C.3     1  UNL1        0.0445
     16 C          63.5074   81.8879   12.4248 C.3     1  UNL1        0.0210
     17 C          62.9574   80.4955   12.3308 C.3     1  UNL1        0.0722
     18 N          61.8840   80.0474   13.2779 N.3     1  UNL1       -0.2727
     19 C          61.3605   80.9918   14.3191 C.3     1  UNL1        0.0722
     20 C          61.9105   82.3843   14.4131 C.3     1  UNL1        0.0210
     21 C          62.1543   80.8200   13.3680 C.3     1  UNL1        0.0722
     22 C          62.6515   82.0790   13.4531 C.3     1  UNL1        0.0210
@<TRIPOS>BOND
     1     1     2    2
     2     2    13    1
     3    13    14    1
     4    14    15    1
     5    15    16    1
     6    16    17    1
     7    17    18    1
     8    18    19    1
     9    19    20    1
    10    18    21    1
    11    21    22    1
    12     2     3    1
    13     3     4    2
    14     4     5    1
    15     5     6    2
    16     6     7    1
    17     7     8    1
    18     8     9    2
    19     9    10    1
    20     9    11    1
    21    11    12    2
    22    20    15    1
    23    12     3    1
    24    22    15    1
    25    12     6    1
@<TRIPOS>MOLECULE
*****
 22 25 0 0 0
SMALL
GASTEIGER

@<TRIPOS>ATOM
      1 O          61.4773   86.3959    8.5836 O.2     1  UNL1       -0.2448
      2 C          61.6557   86.7385   10.0330 C.2     1  UNL1        0.3428
      3 C          61.9057   88.1597   10.4425 C.2     1  UNL1        0.0959
      4 C          61.4142   89.3829    9.7270 C.2     1  UNL1        0.1049
      5 N          61.8959   90.5863   10.4818 N.2     1  UNL1       -0.2476
      6 C          62.6851   90.1068   11.6639 C.2     1  UNL1        0.0637
      7 C          63.3989   90.8421   12.7592 C.3     1  UNL1        0.0741
      8 C          64.1188   90.0776   13.8302 C.2     1  UNL1        0.0098
      9 C          64.1249   88.5778   13.8059 C.2     1  UNL1        0.1363
     10 F          64.8449   87.8133   14.8771 F       1  UNL1       -0.2045
     11 C          63.4111   87.8425   12.7106 C.2     1  UNL1        0.0307
     12 C          62.6911   88.6070   11.6396 C.2     1  UNL1        0.0239
     13 O          61.5840   85.6598   11.0729 O.3     1  UNL1       -0.4454
     14 C          62.7146   84.6852   11.2217 C.3     1  UNL1        0.2087
     15 C          62.6841   83.6633   12.3193 C.3     1  UNL1        0.0445
     16 C          62.5398   82.2080   11.9854 C.3     1  UNL1        0.0210
     17 C          62.5094   81.1862   13.0830 C.3     1  UNL1        0.0722
     18 N          62.6232   81.6194   14.5146 N.3     1  UNL1       -0.2727
     19 C          62.7674   83.0746   14.8485 C.3     1  UNL1        0.0722
     20 C          62.7979   84.0966   13.7508 C.3     1  UNL1        0.0210
     21 C          62.6449   82.2160   13.9474 C.3     1  UNL1        0.0722
     22 C          62.6724   83.1401   12.9550 C.3     1  UNL1        0.0210
@<TRIPOS>BOND
     1     1     2    2
     2     2    13    1
     3    13    14    1
     4    14    15    1
     5    15    16    1
     6    16    17    1
     7    17    18    1
     8    18    19    1
     9    19    20    1
    10    18    21    1
    11    21    22    1
    12     2     3    1
    13     3     4    2
    14     4     5    1
    15     5     6    2
    16     6     7    1
    17     7     8    1
    18     8     9    2
    19     9    10    1
    20     9    11    1
    21    11    12    2
    22    20    15    1
    23    12     3    1
    24    22    15    1
    25    12     6    1
@<TRIPOS>MOLECULE
*****
 22 25 0 0 0
SMALL
GASTEIGER

@<TRIPOS>ATOM
      1 O          65.9205   85.6319   14.8283 O.2     1  UNL1       -0.2448
      2 C          64.4211   85.6438   14.7902 C.2     1  UNL1        0.3428
      3 C          63.6658   84.3641   14.5856 C.2     1  UNL1        0.0959
      4 C          62.8273   83.6615   15.6118 C.2     1  UNL1        0.1049
      5 N          62.2597   82.4255   14.9792 N.2     1  UNL1       -0.2476
      6 C          62.7474   82.3642   13.5621 C.2     1  UNL1        0.0637
      7 C          62.5125   81.3722   12.4618 C.3     1  UNL1        0.0741
      8 C          63.1466   81.5784   11.1182 C.2     1  UNL1        0.0098
      9 C          64.0157   82.7765   10.8748 C.2     1  UNL1        0.1363
     10 F          64.6498   82.9826    9.5311 F       1  UNL1       -0.2045
     11 C          64.2506   83.7685   11.9751 C.2     1  UNL1        0.0307
     12 C          63.6165   83.5624   13.3188 C.2     1  UNL1        0.0239
     13 O          63.6769   86.9356   14.9566 O.3     1  UNL1       -0.4454
     14 C          64.3694   88.2396   14.6920 C.3     1  UNL1        0.2087
     15 C          63.9343   89.1001   13.5430 C.3     1  UNL1        0.0445
     16 C          64.2645   90.5633   13.5346 C.3     1  UNL1        0.0210
     17 C          63.8293   91.4237   12.3855 C.3     1  UNL1        0.0722
     18 N          63.0641   90.8210   11.2448 N.3     1  UNL1       -0.2727
     19 C          62.7340   89.3578   11.2532 C.3     1  UNL1        0.0722
     20 C          63.1691   88.4973   12.4023 C.3     1  UNL1        0.0210
     21 C          63.2813   90.3094   11.8524 C.3     1  UNL1        0.0722
     22 C          63.6746   89.5313   12.8914 C.3     1  UNL1        0.0210
@<TRIPOS>BOND
     1     1     2    2
     2     2    13    1
     3    13    14    1
     4    14    15    1
     5    15    16    1
     6    16    17    1
     7    17    18    1
     8    18    19    1
     9    19    20    1
    10    18    21    1
    11    21    22    1
    12     2     3    1
    13     3     4    2
    14     4     5    1
    15     5     6    2
    16     6     7    1
    17     7     8    1
    18     8     9    2
    19     9    10    1
    20     9    11    1
    21    11    12    2
    22    20    15    1
    23    12     3    1
    24    22    15    1
    25    12     6    1
