@<TRIPOS>MOLECULE
*****
 24 27 0 0 0
SMALL
GASTEIGER

@<TRIPOS>ATOM
      1 C          63.0154   85.5170   12.5651 C.ar    1  UNL1       -0.0003
      2 C          63.7235   86.2581   13.6602 C.ar    1  UNL1       -0.0003
      3 C          63.8499   87.7514   13.5951 C.ar    1  UNL1       -0.0043
      4 C          63.2682   88.5034   12.4349 C.ar    1  UNL1       -0.0224
      5 C          62.5601   87.7623   11.3398 C.ar    1  UNL1       -0.0258
      6 C          62.4338   86.2691   11.4049 C.ar    1  UNL1       -0.0046
      7 C          61.9785   88.5144   10.1796 C.3     1  UNL1        0.0261
      8 C          62.1049   90.0076   10.1146 C.3     1  UNL1        0.0053
      9 C          62.8130   90.7488   11.2097 C.3     1  UNL1        0.0091
     10 C          63.3946   89.9967   12.3699 C.3     1  UNL1        0.0444
     11 F          62.5098   79.5440   12.8251 F       1  UNL1       -0.2018
     12 C          62.6362   81.0372   12.7601 C.ar    1  UNL1        0.1674
     13 C          62.4145   81.8630   13.9926 C.ar    1  UNL1        0.0320
     14 C          62.5409   83.3563   13.9275 C.ar    1  UNL1        0.0025
     15 C          62.8890   84.0237   12.6301 C.ar    1  UNL1        0.0024
     16 C          63.1107   83.1979   11.3977 C.ar    1  UNL1        0.0320
     17 C          62.9843   81.7047   11.4626 C.ar    1  UNL1        0.1674
     18 F          63.2059   80.8789   10.2302 F       1  UNL1       -0.2018
     19 C          64.1027   90.7379   13.4650 C.ar    1  UNL1       -0.0154
     20 C          63.5812   90.6778   14.8702 C.ar    1  UNL1        0.0167
     21 C          64.2894   91.4190   15.9653 C.ar    1  UNL1        0.0986
     22 N          65.5189   92.2202   15.6553 N.ar    1  UNL1       -0.2423
     23 C          66.0404   92.2803   14.2501 C.ar    1  UNL1        0.0986
     24 C          65.3324   91.5391   13.1550 C.ar    1  UNL1        0.0167
@<TRIPOS>BOND
     1    11    12    1
     2    12    13   ar
     3    13    14   ar
     4    14    15   ar
     5    15     1    1
     6     1     2   ar
     7     2     3   ar
     8     3     4   ar
     9     4     5   ar
    10     5     6   ar
    11     5     7    1
    12     7     8    1
    13     8     9    1
    14     9    10    1
    15    10    19    1
    16    19    20   ar
    17    20    21   ar
    18    21    22   ar
    19    22    23   ar
    20    23    24   ar
    21    15    16   ar
    22    16    17   ar
    23    17    18    1
    24    17    12   ar
    25     6     1   ar
    26    24    19   ar
    27    10     4    1
@<TRIPOS>MOLECULE
*****
 24 27 0 0 0
SMALL
GASTEIGER

@<TRIPOS>ATOM
      1 C          62.9183   90.2378   10.7573 C.ar    1  UNL1       -0.0003
      2 C          63.3988   91.3561    9.8807 C.ar    1  UNL1       -0.0003
      3 C          64.4017   92.3412   10.4039 C.ar    1  UNL1       -0.0043
      4 C          64.9242   92.2079   11.8036 C.ar    1  UNL1       -0.0224
      5 C          64.4437   91.0896   12.6802 C.ar    1  UNL1       -0.0258
      6 C          63.4407   90.1046   12.1571 C.ar    1  UNL1       -0.0046
      7 C          64.9661   90.9564   14.0800 C.3     1  UNL1        0.0261
      8 C          65.9691   91.9414   14.6031 C.3     1  UNL1        0.0053
      9 C          66.4496   93.0598   13.7265 C.3     1  UNL1        0.0091
     10 C          65.9272   93.1930   12.3267 C.3     1  UNL1        0.0444
     11 F          58.9064   86.2974    8.6650 F       1  UNL1       -0.2018
     12 C          59.9093   87.2825    9.1880 C.ar    1  UNL1        0.1674
     13 C          59.8075   88.7299    8.8079 C.ar    1  UNL1        0.0320
     14 C          60.8106   89.7151    9.3310 C.ar    1  UNL1        0.0025
     15 C          61.9153   89.2527   10.2342 C.ar    1  UNL1        0.0024
     16 C          62.0170   87.8052   10.6143 C.ar    1  UNL1        0.0320
     17 C          61.0141   86.8201   10.0913 C.ar    1  UNL1        0.1674
     18 F          61.1159   85.3727   10.4714 F       1  UNL1       -0.2018
     19 C          66.4077   94.3113   11.4501 C.ar    1  UNL1       -0.0154
     20 C          66.1132   95.7346   11.8210 C.ar    1  UNL1        0.0167
     21 C          66.5938   96.8529   10.9443 C.ar    1  UNL1        0.0986
     22 N          67.3688   96.5479    9.6968 N.ar    1  UNL1       -0.2423
     23 C          67.6633   95.1246    9.3259 C.ar    1  UNL1        0.0986
     24 C          67.1828   94.0064   10.2025 C.ar    1  UNL1        0.0167
@<TRIPOS>BOND
     1    11    12    1
     2    12    13   ar
     3    13    14   ar
     4    14    15   ar
     5    15     1    1
     6     1     2   ar
     7     2     3   ar
     8     3     4   ar
     9     4     5   ar
    10     5     6   ar
    11     5     7    1
    12     7     8    1
    13     8     9    1
    14     9    10    1
    15    10    19    1
    16    19    20   ar
    17    20    21   ar
    18    21    22   ar
    19    22    23   ar
    20    23    24   ar
    21    15    16   ar
    22    16    17   ar
    23    17    18    1
    24    17    12   ar
    25     6     1   ar
    26    24    19   ar
    27    10     4    1
@<TRIPOS>MOLECULE
*****
 24 27 0 0 0
SMALL
GASTEIGER

@<TRIPOS>ATOM
      1 C          63.1106   85.7501   12.5725 C.ar    1  UNL1       -0.0003
      2 C          63.8621   86.3943   13.6994 C.ar    1  UNL1       -0.0003
      3 C          64.0213   87.8853   13.7390 C.ar    1  UNL1       -0.0043
      4 C          63.4289   88.7320   12.6517 C.ar    1  UNL1       -0.0224
      5 C          62.6773   88.0877   11.5248 C.ar    1  UNL1       -0.0258
      6 C          62.5182   86.5967   11.4852 C.ar    1  UNL1       -0.0046
      7 C          62.0850   88.9344   10.4375 C.3     1  UNL1        0.0261
      8 C          62.2441   90.4254   10.4771 C.3     1  UNL1        0.0053
      9 C          62.9958   91.0697   11.6041 C.3     1  UNL1        0.0091
     10 C          63.5882   90.2230   12.6914 C.3     1  UNL1        0.0444
     11 F          62.4736   79.7860   12.4139 F       1  UNL1       -0.2018
     12 C          62.6329   81.2770   12.4535 C.ar    1  UNL1        0.1674
     13 C          63.2328   81.9986   11.2833 C.ar    1  UNL1        0.0320
     14 C          63.3920   83.4896   11.3230 C.ar    1  UNL1        0.0025
     15 C          62.9513   84.2590   12.5328 C.ar    1  UNL1        0.0024
     16 C          62.3514   83.5374   13.7030 C.ar    1  UNL1        0.0320
     17 C          62.1922   82.0465   13.6634 C.ar    1  UNL1        0.1674
     18 F          61.5922   81.3249   14.8336 F       1  UNL1       -0.2018
     19 C          64.3397   90.8673   13.8183 C.ar    1  UNL1       -0.0154
     20 C          65.7650   91.2923   13.6231 C.ar    1  UNL1        0.0167
     21 C          66.5165   91.9366   14.7501 C.ar    1  UNL1        0.0986
     22 N          65.8429   92.1559   16.0722 N.ar    1  UNL1       -0.2423
     23 C          64.4177   91.7310   16.2674 C.ar    1  UNL1        0.0986
     24 C          63.6661   91.0867   15.1405 C.ar    1  UNL1        0.0167
@<TRIPOS>BOND
     1    11    12    1
     2    12    13   ar
     3    13    14   ar
     4    14    15   ar
     5    15     1    1
     6     1     2   ar
     7     2     3   ar
     8     3     4   ar
     9     4     5   ar
    10     5     6   ar
    11     5     7    1
    12     7     8    1
    13     8     9    1
    14     9    10    1
    15    10    19    1
    16    19    20   ar
    17    20    21   ar
    18    21    22   ar
    19    22    23   ar
    20    23    24   ar
    21    15    16   ar
    22    16    17   ar
    23    17    18    1
    24    17    12   ar
    25     6     1   ar
    26    24    19   ar
    27    10     4    1
@<TRIPOS>MOLECULE
*****
 24 27 0 0 0
SMALL
GASTEIGER

@<TRIPOS>ATOM
      1 C          64.3178   89.0350   13.9048 C.ar    1  UNL1       -0.0003
      2 C          64.4812   87.6641   14.4912 C.ar    1  UNL1       -0.0003
      3 C          63.8442   86.4818   13.8230 C.ar    1  UNL1       -0.0043
      4 C          63.0438   86.6705   12.5685 C.ar    1  UNL1       -0.0224
      5 C          62.8805   88.0414   11.9821 C.ar    1  UNL1       -0.0258
      6 C          63.5175   89.2237   12.6503 C.ar    1  UNL1       -0.0046
      7 C          62.0802   88.2301   10.7276 C.3     1  UNL1        0.0261
      8 C          61.4432   87.0479   10.0594 C.3     1  UNL1        0.0053
      9 C          61.6065   85.6769   10.6458 C.3     1  UNL1        0.0091
     10 C          62.4068   85.4882   11.9003 C.3     1  UNL1        0.0444
     11 F          66.8660   93.7642   16.5773 F       1  UNL1       -0.2018
     12 C          66.2289   92.5819   15.9092 C.ar    1  UNL1        0.1674
     13 C          64.8685   92.1199   16.3401 C.ar    1  UNL1        0.0320
     14 C          64.2314   90.9376   15.6720 C.ar    1  UNL1        0.0025
     15 C          64.9549   90.2173   14.5730 C.ar    1  UNL1        0.0024
     16 C          66.3153   90.6793   14.1421 C.ar    1  UNL1        0.0320
     17 C          66.9524   91.8616   14.8102 C.ar    1  UNL1        0.1674
     18 F          68.3128   92.3236   14.3793 F       1  UNL1       -0.2018
     19 C          62.5701   84.1173   12.4867 C.ar    1  UNL1       -0.0154
     20 C          62.2728   83.8820   13.9380 C.ar    1  UNL1        0.0167
     21 C          62.4361   82.5110   14.5243 C.ar    1  UNL1        0.0986
     22 N          62.8968   81.3754   13.6594 N.ar    1  UNL1       -0.2423
     23 C          63.1941   81.6107   12.2082 C.ar    1  UNL1        0.0986
     24 C          63.0308   82.9816   11.6218 C.ar    1  UNL1        0.0167
@<TRIPOS>BOND
     1    11    12    1
     2    12    13   ar
     3    13    14   ar
     4    14    15   ar
     5    15     1    1
     6     1     2   ar
     7     2     3   ar
     8     3     4   ar
     9     4     5   ar
    10     5     6   ar
    11     5     7    1
    12     7     8    1
    13     8     9    1
    14     9    10    1
    15    10    19    1
    16    19    20   ar
    17    20    21   ar
    18    21    22   ar
    19    22    23   ar
    20    23    24   ar
    21    15    16   ar
    22    16    17   ar
    23    17    18    1
    24    17    12   ar
    25     6     1   ar
    26    24    19   ar
    27    10     4    1
@<TRIPOS>MOLECULE
*****
 24 27 0 0 0
SMALL
GASTEIGER

@<TRIPOS>ATOM
      1 C          63.1825   84.4351   13.8998 C.ar    1  UNL1       -0.0003
      2 C          63.6161   85.5329   12.9742 C.ar    1  UNL1       -0.0003
      3 C          63.7773   86.9312   13.4928 C.ar    1  UNL1       -0.0043
      4 C          63.5048   87.2316   14.9370 C.ar    1  UNL1       -0.0224
      5 C          63.0712   86.1337   15.8625 C.ar    1  UNL1       -0.0258
      6 C          62.9100   84.7355   15.3439 C.ar    1  UNL1       -0.0046
      7 C          62.7987   86.4341   17.3066 C.3     1  UNL1        0.0261
      8 C          62.9599   87.8323   17.8252 C.3     1  UNL1        0.0053
      9 C          63.3935   88.9303   16.8997 C.3     1  UNL1        0.0091
     10 C          63.6660   88.6299   15.4555 C.3     1  UNL1        0.0444
     11 F          62.5378   78.8421   11.8255 F       1  UNL1       -0.2018
     12 C          62.6990   80.2403   12.3441 C.ar    1  UNL1        0.1674
     13 C          62.4626   80.5336   13.7960 C.ar    1  UNL1        0.0320
     14 C          62.6238   81.9319   14.3146 C.ar    1  UNL1        0.0025
     15 C          63.0213   83.0368   13.3812 C.ar    1  UNL1        0.0024
     16 C          63.2578   82.7435   11.9293 C.ar    1  UNL1        0.0320
     17 C          63.0966   81.3452   11.4107 C.ar    1  UNL1        0.1674
     18 F          63.3330   81.0519    9.9588 F       1  UNL1       -0.2018
     19 C          64.0996   89.7277   14.5300 C.ar    1  UNL1       -0.0154
     20 C          65.3699   90.4783   14.8000 C.ar    1  UNL1        0.0167
     21 C          65.8035   91.5762   13.8743 C.ar    1  UNL1        0.0986
     22 N          64.9668   91.9234   12.6788 N.ar    1  UNL1       -0.2423
     23 C          63.6965   91.1727   12.4088 C.ar    1  UNL1        0.0986
     24 C          63.2629   90.0749   13.3343 C.ar    1  UNL1        0.0167
@<TRIPOS>BOND
     1    11    12    1
     2    12    13   ar
     3    13    14   ar
     4    14    15   ar
     5    15     1    1
     6     1     2   ar
     7     2     3   ar
     8     3     4   ar
     9     4     5   ar
    10     5     6   ar
    11     5     7    1
    12     7     8    1
    13     8     9    1
    14     9    10    1
    15    10    19    1
    16    19    20   ar
    17    20    21   ar
    18    21    22   ar
    19    22    23   ar
    20    23    24   ar
    21    15    16   ar
    22    16    17   ar
    23    17    18    1
    24    17    12   ar
    25     6     1   ar
    26    24    19   ar
    27    10     4    1
@<TRIPOS>MOLECULE
*****
 24 27 0 0 0
SMALL
GASTEIGER

@<TRIPOS>ATOM
      1 C          64.2935   89.8025   13.4872 C.ar    1  UNL1       -0.0003
      2 C          63.4793   90.2734   12.3188 C.ar    1  UNL1       -0.0003
      3 C          62.6818   89.2895   11.5152 C.ar    1  UNL1       -0.0043
      4 C          62.6986   87.8346   11.8800 C.ar    1  UNL1       -0.0224
      5 C          63.5128   87.3637   13.0484 C.ar    1  UNL1       -0.0258
      6 C          64.3103   88.3477   13.8520 C.ar    1  UNL1       -0.0046
      7 C          63.5296   85.9088   13.4132 C.3     1  UNL1        0.0261
      8 C          62.7322   84.9249   12.6096 C.3     1  UNL1        0.0053
      9 C          61.9179   85.3957   11.4411 C.3     1  UNL1        0.0091
     10 C          61.9011   86.8506   11.0763 C.3     1  UNL1        0.0444
     11 F          67.4836   93.7384   16.7016 F       1  UNL1       -0.2018
     12 C          66.6861   92.7545   15.8981 C.ar    1  UNL1        0.1674
     13 C          65.3233   92.3352   16.3640 C.ar    1  UNL1        0.0320
     14 C          64.5258   91.3512   15.5603 C.ar    1  UNL1        0.0025
     15 C          65.0910   90.7865   14.2908 C.ar    1  UNL1        0.0024
     16 C          66.4538   91.2058   13.8249 C.ar    1  UNL1        0.0320
     17 C          67.2513   92.1898   14.6285 C.ar    1  UNL1        0.1674
     18 F          68.6141   92.6091   14.1626 F       1  UNL1       -0.2018
     19 C          61.0868   87.3215    9.9079 C.ar    1  UNL1       -0.0154
     20 C          60.5022   86.3253    8.9510 C.ar    1  UNL1        0.0167
     21 C          59.6879   86.7962    7.7825 C.ar    1  UNL1        0.0986
     22 N          59.4583   88.2633    7.5711 N.ar    1  UNL1       -0.2423
     23 C          60.0429   89.2596    8.5280 C.ar    1  UNL1        0.0986
     24 C          60.8571   88.7887    9.6964 C.ar    1  UNL1        0.0167
@<TRIPOS>BOND
     1    11    12    1
     2    12    13   ar
     3    13    14   ar
     4    14    15   ar
     5    15     1    1
     6     1     2   ar
     7     2     3   ar
     8     3     4   ar
     9     4     5   ar
    10     5     6   ar
    11     5     7    1
    12     7     8    1
    13     8     9    1
    14     9    10    1
    15    10    19    1
    16    19    20   ar
    17    20    21   ar
    18    21    22   ar
    19    22    23   ar
    20    23    24   ar
    21    15    16   ar
    22    16    17   ar
    23    17    18    1
    24    17    12   ar
    25     6     1   ar
    26    24    19   ar
    27    10     4    1
@<TRIPOS>MOLECULE
*****
 24 27 0 0 0
SMALL
GASTEIGER

@<TRIPOS>ATOM
      1 C          62.5877   86.2904   10.7396 C.ar    1  UNL1       -0.0003
      2 C          62.7111   87.7477   11.0727 C.ar    1  UNL1       -0.0003
      3 C          63.1772   88.1689   12.4347 C.ar    1  UNL1       -0.0043
      4 C          63.5199   87.1327   13.4638 C.ar    1  UNL1       -0.0224
      5 C          63.3964   85.6754   13.1308 C.ar    1  UNL1       -0.0258
      6 C          62.9303   85.2543   11.7687 C.ar    1  UNL1       -0.0046
      7 C          63.7391   84.6393   14.1599 C.3     1  UNL1        0.0261
      8 C          64.2052   85.0604   15.5220 C.3     1  UNL1        0.0053
      9 C          64.3286   86.5178   15.8550 C.3     1  UNL1        0.0091
     10 C          63.9860   87.5540   14.8260 C.3     1  UNL1        0.0444
     11 F          60.7232   84.6055    5.2912 F       1  UNL1       -0.2018
     12 C          61.1893   85.0267    6.6533 C.ar    1  UNL1        0.1674
     13 C          62.5676   84.6628    7.1201 C.ar    1  UNL1        0.0320
     14 C          63.0337   85.0840    8.4822 C.ar    1  UNL1        0.0025
     15 C          62.1216   85.8692    9.3775 C.ar    1  UNL1        0.0024
     16 C          60.7433   86.2331    8.9107 C.ar    1  UNL1        0.0320
     17 C          60.2772   85.8119    7.5486 C.ar    1  UNL1        0.1674
     18 F          58.8989   86.1759    7.0818 F       1  UNL1       -0.2018
     19 C          64.1094   89.0113   15.1590 C.ar    1  UNL1       -0.0154
     20 C          63.3132   89.5923   16.2896 C.ar    1  UNL1        0.0167
     21 C          63.4366   91.0497   16.6226 C.ar    1  UNL1        0.0986
     22 N          64.3563   91.9260   15.8250 N.ar    1  UNL1       -0.2423
     23 C          65.1526   91.3450   14.6943 C.ar    1  UNL1        0.0986
     24 C          65.0291   89.8877   14.3613 C.ar    1  UNL1        0.0167
@<TRIPOS>BOND
     1    11    12    1
     2    12    13   ar
     3    13    14   ar
     4    14    15   ar
     5    15     1    1
     6     1     2   ar
     7     2     3   ar
     8     3     4   ar
     9     4     5   ar
    10     5     6   ar
    11     5     7    1
    12     7     8    1
    13     8     9    1
    14     9    10    1
    15    10    19    1
    16    19    20   ar
    17    20    21   ar
    18    21    22   ar
    19    22    23   ar
    20    23    24   ar
    21    15    16   ar
    22    16    17   ar
    23    17    18    1
    24    17    12   ar
    25     6     1   ar
    26    24    19   ar
    27    10     4    1
@<TRIPOS>MOLECULE
*****
 24 27 0 0 0
SMALL
GASTEIGER

@<TRIPOS>ATOM
      1 C          62.9452   90.5235   11.0828 C.ar    1  UNL1       -0.0003
      2 C          63.4515   91.4799   10.0441 C.ar    1  UNL1       -0.0003
      3 C          64.5439   92.4493   10.3861 C.ar    1  UNL1       -0.0043
      4 C          65.1299   92.4623   11.7669 C.ar    1  UNL1       -0.0224
      5 C          64.6236   91.5059   12.8056 C.ar    1  UNL1       -0.0258
      6 C          63.5312   90.5365   12.4635 C.ar    1  UNL1       -0.0046
      7 C          65.2096   91.5189   14.1863 C.3     1  UNL1        0.0261
      8 C          66.3019   92.4883   14.5283 C.3     1  UNL1        0.0053
      9 C          66.8083   93.4447   13.4896 C.3     1  UNL1        0.0091
     10 C          66.2223   93.4317   12.1089 C.3     1  UNL1        0.0444
     11 F          58.5756   86.6459    9.7149 F       1  UNL1       -0.2018
     12 C          59.6680   87.6152   10.0568 C.ar    1  UNL1        0.1674
     13 C          60.9603   87.5879    9.2958 C.ar    1  UNL1        0.0320
     14 C          62.0527   88.5574    9.6378 C.ar    1  UNL1        0.0025
     15 C          61.8528   89.5541   10.7408 C.ar    1  UNL1        0.0024
     16 C          60.5605   89.5814   11.5018 C.ar    1  UNL1        0.0320
     17 C          59.4681   88.6120   11.1598 C.ar    1  UNL1        0.1674
     18 F          58.1758   88.6393   11.9209 F       1  UNL1       -0.2018
     19 C          66.7286   94.3881   11.0702 C.ar    1  UNL1       -0.0154
     20 C          66.5595   95.8657   11.2651 C.ar    1  UNL1        0.0167
     21 C          67.0659   96.8221   10.2264 C.ar    1  UNL1        0.0986
     22 N          67.7414   96.3008    8.9927 N.ar    1  UNL1       -0.2423
     23 C          67.9105   94.8232    8.7977 C.ar    1  UNL1        0.0986
     24 C          67.4042   93.8668    9.8364 C.ar    1  UNL1        0.0167
@<TRIPOS>BOND
     1    11    12    1
     2    12    13   ar
     3    13    14   ar
     4    14    15   ar
     5    15     1    1
     6     1     2   ar
     7     2     3   ar
     8     3     4   ar
     9     4     5   ar
    10     5     6   ar
    11     5     7    1
    12     7     8    1
    13     8     9    1
    14     9    10    1
    15    10    19    1
    16    19    20   ar
    17    20    21   ar
    18    21    22   ar
    19    22    23   ar
    20    23    24   ar
    21    15    16   ar
    22    16    17   ar
    23    17    18    1
    24    17    12   ar
    25     6     1   ar
    26    24    19   ar
    27    10     4    1
