@<TRIPOS>MOLECULE
*****
 29 33 0 0 0
SMALL
GASTEIGER

@<TRIPOS>ATOM
      1 O          63.4980   89.4307   12.6884 O.2     1  UNL1       -0.2638
      2 C          62.6615   88.8013   11.6139 C.2     1  UNL1        0.3160
      3 N          62.0118   89.6600   10.5696 N.am    1  UNL1       -0.1720
      4 C          61.1754   89.0306    9.4952 C.ar    1  UNL1        0.0775
      5 C          60.5257   89.8892    8.4509 C.ar    1  UNL1        0.0167
      6 C          59.6894   89.2598    7.3765 C.ar    1  UNL1        0.0013
      7 C          59.5027   87.7718    7.3465 C.ar    1  UNL1        0.0002
      8 C          60.1524   86.9132    8.3908 C.ar    1  UNL1        0.0051
      9 C          60.9887   87.5426    9.4651 C.ar    1  UNL1        0.0623
     10 C          61.6385   86.6839   10.5095 C.2     1  UNL1        0.2419
     11 N          61.6342   85.2009   10.7344 N.2     1  UNL1       -0.0302
     12 C          62.4680   84.9137   11.9478 C.2     1  UNL1        0.3787
     13 N          62.9875   86.2192   12.4728 N.2     1  UNL1       -0.0255
     14 C          62.4748   87.3133   11.5839 C.2     1  UNL1        0.2907
     15 C          62.7354   83.5588   12.5333 C.ar    1  UNL1        0.1263
     16 C          62.3301   83.2591   13.9461 C.ar    1  UNL1        0.1484
     17 F          61.6575   84.3142   14.7733 F       1  UNL1       -0.2039
     18 C          62.5974   81.9042   14.5316 C.ar    1  UNL1        0.0300
     19 C          63.2700   80.8491   13.7043 C.ar    1  UNL1        0.0032
     20 C          63.6753   81.1488   12.2916 C.ar    1  UNL1        0.0118
     21 C          63.4080   82.5037   11.7061 C.ar    1  UNL1        0.0673
     22 CL         63.8132   82.8035   10.2933 Cl      1  UNL1       -0.0819
     23 C          59.0396   90.1185    6.3322 C.ar    1  UNL1        0.0009
     24 C          57.5475   90.1124    6.1783 C.ar    1  UNL1        0.0001
     25 C          56.8978   90.9710    5.1340 C.ar    1  UNL1        0.0009
     26 C          57.7401   91.8357    4.2435 C.ar    1  UNL1        0.0114
     27 C          59.2322   91.8418    4.3974 C.ar    1  UNL1        0.0577
     28 CL         60.0745   92.7064    3.5070 Cl      1  UNL1       -0.0822
     29 C          59.8819   90.9831    5.4418 C.ar    1  UNL1        0.0114
@<TRIPOS>BOND
     1     1     2    2
     2     2     3    1
     3     3     4    2
     4     4     5   ar
     5     5     6   ar
     6     6    23    1
     7    23    24   ar
     8    24    25   ar
     9    25    26   ar
    10    26    27   ar
    11    27    28    1
    12    27    29   ar
    13     6     7   ar
    14     7     8   ar
    15     8     9   ar
    16     9    10    2
    17    10    11    1
    18    11    12    2
    19    12    15    1
    20    15    16   ar
    21    16    17    1
    22    16    18   ar
    23    18    19   ar
    24    19    20   ar
    25    20    21   ar
    26    21    22    1
    27    12    13    1
    28    13    14    2
    29    14     2    1
    30     9     4   ar
    31    14    10    1
    32    29    23   ar
    33    21    15   ar
@<TRIPOS>MOLECULE
*****
 29 33 0 0 0
SMALL
GASTEIGER

@<TRIPOS>ATOM
      1 O          63.5094   89.3933   12.6943 O.2     1  UNL1       -0.2638
      2 C          62.6708   88.7695   11.6182 C.2     1  UNL1        0.3160
      3 N          62.0226   89.6331   10.5772 N.am    1  UNL1       -0.1720
      4 C          61.1840   89.0093    9.5012 C.ar    1  UNL1        0.0775
      5 C          60.5357   89.8729    8.4601 C.ar    1  UNL1        0.0167
      6 C          59.6972   89.2491    7.3842 C.ar    1  UNL1        0.0013
      7 C          59.5070   87.7616    7.3493 C.ar    1  UNL1        0.0002
      8 C          60.1552   86.8980    8.3904 C.ar    1  UNL1        0.0051
      9 C          60.9938   87.5218    9.4663 C.ar    1  UNL1        0.0623
     10 C          61.6421   86.6582   10.5074 C.2     1  UNL1        0.2419
     11 N          61.6344   85.1745   10.7274 N.2     1  UNL1       -0.0302
     12 C          62.4682   84.8813   11.9393 C.2     1  UNL1        0.3787
     13 N          62.9912   86.1838   12.4683 N.2     1  UNL1       -0.0255
     14 C          62.4806   87.2820   11.5834 C.2     1  UNL1        0.2907
     15 C          62.7327   83.5238   12.5203 C.ar    1  UNL1        0.1263
     16 C          63.2407   82.4185   11.6428 C.ar    1  UNL1        0.1484
     17 F          63.4844   82.6705   10.1843 F       1  UNL1       -0.2039
     18 C          63.5051   81.0611   12.2237 C.ar    1  UNL1        0.0300
     19 C          63.2615   80.8090   13.6822 C.ar    1  UNL1        0.0032
     20 C          62.7535   81.9144   14.5597 C.ar    1  UNL1        0.0118
     21 C          62.4890   83.2717   13.9787 C.ar    1  UNL1        0.0673
     22 CL         61.9810   84.3772   14.8563 Cl      1  UNL1       -0.0819
     23 C          59.0489   90.1128    6.3431 C.ar    1  UNL1        0.0009
     24 C          57.5572   90.1061    6.1859 C.ar    1  UNL1        0.0001
     25 C          56.9089   90.9696    5.1448 C.ar    1  UNL1        0.0009
     26 C          57.7523   91.8400    4.2609 C.ar    1  UNL1        0.0114
     27 C          59.2440   91.8467    4.4181 C.ar    1  UNL1        0.0577
     28 CL         60.0874   92.7169    3.5342 Cl      1  UNL1       -0.0822
     29 C          59.8923   90.9830    5.4592 C.ar    1  UNL1        0.0114
@<TRIPOS>BOND
     1     1     2    2
     2     2     3    1
     3     3     4    2
     4     4     5   ar
     5     5     6   ar
     6     6    23    1
     7    23    24   ar
     8    24    25   ar
     9    25    26   ar
    10    26    27   ar
    11    27    28    1
    12    27    29   ar
    13     6     7   ar
    14     7     8   ar
    15     8     9   ar
    16     9    10    2
    17    10    11    1
    18    11    12    2
    19    12    15    1
    20    15    16   ar
    21    16    17    1
    22    16    18   ar
    23    18    19   ar
    24    19    20   ar
    25    20    21   ar
    26    21    22    1
    27    12    13    1
    28    13    14    2
    29    14     2    1
    30     9     4   ar
    31    14    10    1
    32    29    23   ar
    33    21    15   ar
@<TRIPOS>MOLECULE
*****
 29 33 0 0 0
SMALL
GASTEIGER

@<TRIPOS>ATOM
      1 O          63.1461   88.7388   18.1140 O.2     1  UNL1       -0.2638
      2 C          63.2844   88.0278   16.8005 C.2     1  UNL1        0.3160
      3 N          62.9125   86.5790   16.6890 N.am    1  UNL1       -0.1720
      4 C          63.0508   85.8680   15.3755 C.ar    1  UNL1        0.0775
      5 C          62.6788   84.4191   15.2640 C.ar    1  UNL1        0.0167
      6 C          62.8172   83.7082   13.9505 C.ar    1  UNL1        0.0013
      7 C          63.3275   84.4461   12.7484 C.ar    1  UNL1        0.0002
      8 C          63.6995   85.8950   12.8598 C.ar    1  UNL1        0.0051
      9 C          63.5611   86.6059   14.1733 C.ar    1  UNL1        0.0623
     10 C          63.9331   88.0548   14.2848 C.2     1  UNL1        0.2419
     11 N          64.4602   89.0358   13.2800 N.2     1  UNL1       -0.0302
     12 C          64.6477   90.3531   13.9726 C.2     1  UNL1        0.3787
     13 N          64.2364   90.1862   15.4054 N.2     1  UNL1       -0.0255
     14 C          63.7947   88.7657   15.5983 C.2     1  UNL1        0.2907
     15 C          65.1571   91.6157   13.3428 C.ar    1  UNL1        0.1263
     16 C          64.7914   91.9479   11.9265 C.ar    1  UNL1        0.1484
     17 F          63.9163   91.0176   11.1400 F       1  UNL1       -0.2039
     18 C          65.3008   93.2104   11.2969 C.ar    1  UNL1        0.0300
     19 C          66.1759   94.1407   12.0835 C.ar    1  UNL1        0.0032
     20 C          66.5416   93.8085   13.4997 C.ar    1  UNL1        0.0118
     21 C          66.0322   92.5460   14.1294 C.ar    1  UNL1        0.0673
     22 CL         66.3979   92.2137   15.5457 Cl      1  UNL1       -0.0819
     23 C          62.4452   82.2593   13.8391 C.ar    1  UNL1        0.0009
     24 C          63.4635   81.2565   13.3833 C.ar    1  UNL1        0.0001
     25 C          63.0916   79.8077   13.2718 C.ar    1  UNL1        0.0009
     26 C          61.7014   79.3615   13.6161 C.ar    1  UNL1        0.0114
     27 C          60.6832   80.3643   14.0719 C.ar    1  UNL1        0.0577
     28 CL         59.2931   79.9182   14.4162 Cl      1  UNL1       -0.0822
     29 C          61.0551   81.8132   14.1833 C.ar    1  UNL1        0.0114
@<TRIPOS>BOND
     1     1     2    2
     2     2     3    1
     3     3     4    2
     4     4     5   ar
     5     5     6   ar
     6     6    23    1
     7    23    24   ar
     8    24    25   ar
     9    25    26   ar
    10    26    27   ar
    11    27    28    1
    12    27    29   ar
    13     6     7   ar
    14     7     8   ar
    15     8     9   ar
    16     9    10    2
    17    10    11    1
    18    11    12    2
    19    12    15    1
    20    15    16   ar
    21    16    17    1
    22    16    18   ar
    23    18    19   ar
    24    19    20   ar
    25    20    21   ar
    26    21    22    1
    27    12    13    1
    28    13    14    2
    29    14     2    1
    30     9     4   ar
    31    14    10    1
    32    29    23   ar
    33    21    15   ar
@<TRIPOS>MOLECULE
*****
 29 33 0 0 0
SMALL
GASTEIGER

@<TRIPOS>ATOM
      1 O          61.2626   86.7026    9.3153 O.2     1  UNL1       -0.2638
      2 C          62.0353   86.6971   10.6010 C.2     1  UNL1        0.3160
      3 N          62.4790   87.9918   11.2149 N.am    1  UNL1       -0.1720
      4 C          63.2517   87.9862   12.5007 C.ar    1  UNL1        0.0775
      5 C          63.6954   89.2809   13.1146 C.ar    1  UNL1        0.0167
      6 C          64.4680   89.2753   14.4002 C.ar    1  UNL1        0.0013
      7 C          64.7970   87.9751   15.0719 C.ar    1  UNL1        0.0002
      8 C          64.3533   86.6804   14.4580 C.ar    1  UNL1        0.0051
      9 C          63.5807   86.6860   13.1724 C.ar    1  UNL1        0.0623
     10 C          63.1369   85.3913   12.5584 C.2     1  UNL1        0.2419
     11 N          63.3127   83.9648   12.9874 N.2     1  UNL1       -0.0302
     12 C          62.6487   83.0887   11.9669 C.2     1  UNL1        0.3787
     13 N          62.0625   83.9738   10.9072 N.2     1  UNL1       -0.0255
     14 C          62.3643   85.3969   11.2727 C.2     1  UNL1        0.2907
     15 C          62.5824   81.5905   12.0002 C.ar    1  UNL1        0.1263
     16 C          63.0144   80.7938   10.8050 C.ar    1  UNL1        0.1484
     17 F          63.5127   81.4953    9.5763 F       1  UNL1       -0.2039
     18 C          62.9482   79.2957   10.8384 C.ar    1  UNL1        0.0300
     19 C          62.4499   78.5942   12.0671 C.ar    1  UNL1        0.0032
     20 C          62.0179   79.3908   13.2623 C.ar    1  UNL1        0.0118
     21 C          62.0842   80.8890   13.2289 C.ar    1  UNL1        0.0673
     22 CL         61.6521   81.6857   14.4242 Cl      1  UNL1       -0.0819
     23 C          64.9118   90.5700   15.0142 C.ar    1  UNL1        0.0009
     24 C          64.1155   91.1840   16.1273 C.ar    1  UNL1        0.0001
     25 C          64.5592   92.4786   16.7413 C.ar    1  UNL1        0.0009
     26 C          65.7992   93.1594   16.2422 C.ar    1  UNL1        0.0114
     27 C          66.5955   92.5454   15.1291 C.ar    1  UNL1        0.0577
     28 CL         67.8354   93.2261   14.6300 Cl      1  UNL1       -0.0822
     29 C          66.1517   91.2507   14.5151 C.ar    1  UNL1        0.0114
@<TRIPOS>BOND
     1     1     2    2
     2     2     3    1
     3     3     4    2
     4     4     5   ar
     5     5     6   ar
     6     6    23    1
     7    23    24   ar
     8    24    25   ar
     9    25    26   ar
    10    26    27   ar
    11    27    28    1
    12    27    29   ar
    13     6     7   ar
    14     7     8   ar
    15     8     9   ar
    16     9    10    2
    17    10    11    1
    18    11    12    2
    19    12    15    1
    20    15    16   ar
    21    16    17    1
    22    16    18   ar
    23    18    19   ar
    24    19    20   ar
    25    20    21   ar
    26    21    22    1
    27    12    13    1
    28    13    14    2
    29    14     2    1
    30     9     4   ar
    31    14    10    1
    32    29    23   ar
    33    21    15   ar
