@<TRIPOS>MOLECULE
*****
 30 32 0 0 0
SMALL
GASTEIGER

@<TRIPOS>ATOM
      1 C          62.5170   86.6738   11.4815 C.3     1  UNL1        0.0469
      2 C          61.6239   87.1674   10.3821 C.ar    1  UNL1       -0.0191
      3 C          60.9744   86.1902    9.4476 C.ar    1  UNL1        0.0355
      4 C          60.0813   86.6838    8.3483 C.ar    1  UNL1        0.1674
      5 O          59.4318   85.7066    7.4138 O.3     1  UNL1       -0.5029
      6 C          59.8377   88.1547    8.1834 C.ar    1  UNL1        0.1718
      7 C          60.4871   89.1319    9.1178 C.ar    1  UNL1        0.0355
      8 C          61.3802   88.6383   10.2172 C.ar    1  UNL1       -0.0225
      9 C          62.0297   89.6155   11.1517 C.3     1  UNL1        0.0287
     10 C          62.9228   89.1219   12.2510 C.3     1  UNL1        0.0367
     11 C          63.1665   87.6510   12.4160 C.3     1  UNL1        0.0401
     12 H          59.5840   84.7878    7.5168 H       1  UNL1        0.2923
     13 C          62.5555   83.0329   13.0602 C.ar    1  UNL1        0.1718
     14 C          62.3118   84.5037   12.8952 C.ar    1  UNL1        0.0361
     15 C          62.7607   85.2030   11.6464 C.ar    1  UNL1       -0.0151
     16 C          63.4533   84.4313   10.5625 C.ar    1  UNL1       -0.0006
     17 C          63.6970   82.9604   10.7274 C.ar    1  UNL1        0.0395
     18 C          63.2480   82.2612   11.9763 C.ar    1  UNL1        0.1677
     19 O          63.4917   80.7904   12.1412 O.3     1  UNL1       -0.5029
     20 H          63.9243   80.3083   11.4641 H       1  UNL1        0.2923
     21 C          61.1279   81.2001   14.2235 C.3     1  UNL1        0.2526
     22 O          62.1065   82.3337   14.3091 O.3     1  UNL1       -0.4684
     23 C          63.5723   90.0991   13.1856 C.3     1  UNL1        0.1375
     24 O          62.9295   90.4179   14.5028 O.3     1  UNL1       -0.3820
     25 H          62.0876   90.8747   14.3496 H       1  UNL1        0.2104
     26 C          64.0596   87.1574   13.5154 C.3     1  UNL1        0.1378
     27 O          63.6810   87.3856   14.9487 O.3     1  UNL1       -0.3820
     28 H          63.6981   88.3364   15.1402 H       1  UNL1        0.2104
     29 O          58.9445   88.6483    7.0839 O.3     1  UNL1       -0.4684
     30 C          59.3749   89.8039    6.2299 C.3     1  UNL1        0.2526
@<TRIPOS>BOND
     1    21    22    1
     2    22    13    1
     3    13    14   ar
     4    14    15   ar
     5     1    15    1
     6     1     2    1
     7     2     3   ar
     8     3     4   ar
     9     4     5    1
    10     4     6   ar
    11     6    29    1
    12    29    30    1
    13     6     7   ar
    14     7     8   ar
    15     8     9    1
    16     9    10    1
    17    10    23    1
    18    23    24    1
    19    10    11    1
    20    11    26    1
    21    26    27    1
    22    15    16   ar
    23    16    17   ar
    24    17    18   ar
    25    18    19    1
    26    18    13   ar
    27    11     1    1
    28     8     2   ar
    29     5    12    1
    30    24    25    1
    31    27    28    1
    32    19    20    1
@<TRIPOS>MOLECULE
*****
 30 32 0 0 0
SMALL
GASTEIGER

@<TRIPOS>ATOM
      1 C          63.4596   89.2147   12.8115 C.3     1  UNL1        0.0469
      2 C          63.4997   87.7381   13.0727 C.ar    1  UNL1       -0.0191
      3 C          64.1758   87.2125   14.3042 C.ar    1  UNL1        0.0355
      4 C          64.2159   85.7360   14.5654 C.ar    1  UNL1        0.1674
      5 O          64.8920   85.2102   15.7969 O.3     1  UNL1       -0.5029
      6 C          63.5799   84.7851   13.5951 C.ar    1  UNL1        0.1718
      7 C          62.9039   85.3108   12.3636 C.ar    1  UNL1        0.0355
      8 C          62.8638   86.7873   12.1024 C.ar    1  UNL1       -0.0225
      9 C          62.1877   87.3131   10.8709 C.3     1  UNL1        0.0287
     10 C          62.1476   88.7896   10.6097 C.3     1  UNL1        0.0367
     11 C          62.7836   89.7404   11.5800 C.3     1  UNL1        0.0401
     12 H          65.2892   85.8042   16.4030 H       1  UNL1        0.2923
     13 C          65.9622   91.8782   14.3584 C.ar    1  UNL1        0.1718
     14 C          65.3263   90.9273   13.3881 C.ar    1  UNL1        0.0361
     15 C          64.0956   90.1656   13.7818 C.ar    1  UNL1       -0.0151
     16 C          63.5008   90.3546   15.1458 C.ar    1  UNL1       -0.0006
     17 C          64.1367   91.3055   16.1161 C.ar    1  UNL1        0.0395
     18 C          65.3675   92.0672   15.7224 C.ar    1  UNL1        0.1677
     19 O          66.0034   93.0181   16.6927 O.3     1  UNL1       -0.5029
     20 H          65.6319   93.1362   17.5447 H       1  UNL1        0.2923
     21 C          68.4960   92.3694   14.6567 C.3     1  UNL1        0.2526
     22 O          67.1930   92.6400   13.9647 O.3     1  UNL1       -0.4684
     23 C          61.4715   89.3153    9.3782 C.3     1  UNL1        0.1375
     24 O          60.1911   90.0875    9.4973 O.3     1  UNL1       -0.3820
     25 H          59.4914   89.5040    9.8301 H       1  UNL1        0.2104
     26 C          62.7434   91.2170   11.3188 C.3     1  UNL1        0.1378
     27 O          63.5812   91.8080   10.2239 O.3     1  UNL1       -0.3820
     28 H          64.5203   91.7078   10.4454 H       1  UNL1        0.2104
     29 O          63.6201   83.3085   13.8563 O.3     1  UNL1       -0.4684
     30 C          62.3972   82.6031   14.3631 C.3     1  UNL1        0.2526
@<TRIPOS>BOND
     1    21    22    1
     2    22    13    1
     3    13    14   ar
     4    14    15   ar
     5     1    15    1
     6     1     2    1
     7     2     3   ar
     8     3     4   ar
     9     4     5    1
    10     4     6   ar
    11     6    29    1
    12    29    30    1
    13     6     7   ar
    14     7     8   ar
    15     8     9    1
    16     9    10    1
    17    10    23    1
    18    23    24    1
    19    10    11    1
    20    11    26    1
    21    26    27    1
    22    15    16   ar
    23    16    17   ar
    24    17    18   ar
    25    18    19    1
    26    18    13   ar
    27    11     1    1
    28     8     2   ar
    29     5    12    1
    30    24    25    1
    31    27    28    1
    32    19    20    1
@<TRIPOS>MOLECULE
*****
 30 32 0 0 0
SMALL
GASTEIGER

@<TRIPOS>ATOM
      1 C          61.9718   86.9619   10.5115 C.3     1  UNL1        0.0469
      2 C          62.4435   88.1596   11.2816 C.ar    1  UNL1       -0.0191
      3 C          63.3785   87.9850   12.4415 C.ar    1  UNL1        0.0355
      4 C          63.8502   89.1827   13.2115 C.ar    1  UNL1        0.1674
      5 O          64.7851   89.0080   14.3714 O.3     1  UNL1       -0.5029
      6 C          63.3869   90.5550   12.8216 C.ar    1  UNL1        0.1718
      7 C          62.4520   90.7297   11.6617 C.ar    1  UNL1        0.0355
      8 C          61.9803   89.5320   10.8917 C.ar    1  UNL1       -0.0225
      9 C          61.0454   89.7066    9.7318 C.3     1  UNL1        0.0287
     10 C          60.5737   88.5089    8.9618 C.3     1  UNL1        0.0367
     11 C          61.0369   87.1365    9.3517 C.3     1  UNL1        0.0401
     12 H          65.0745   88.1508   14.6150 H       1  UNL1        0.2923
     13 C          62.5979   83.6852   12.6613 C.ar    1  UNL1        0.1718
     14 C          62.1347   85.0576   12.2714 C.ar    1  UNL1        0.0361
     15 C          62.4350   85.5895   10.9014 C.ar    1  UNL1       -0.0151
     16 C          63.1986   84.7490    9.9213 C.ar    1  UNL1       -0.0006
     17 C          63.6618   83.3767   10.3112 C.ar    1  UNL1        0.0395
     18 C          63.3614   82.8447   11.6812 C.ar    1  UNL1        0.1677
     19 O          63.8246   81.4724   12.0711 O.3     1  UNL1       -0.5029
     20 H          64.3016   80.9474   11.4588 H       1  UNL1        0.2923
     21 C          63.1192   83.5973   15.2050 C.3     1  UNL1        0.2526
     22 O          62.2975   83.1533   14.0313 O.3     1  UNL1       -0.4684
     23 C          59.6387   88.6836    7.8018 C.3     1  UNL1        0.1375
     24 O          59.7711   89.8787    6.9051 O.3     1  UNL1       -0.3820
     25 H          59.5614   90.6830    7.4052 H       1  UNL1        0.2104
     26 C          60.5651   85.9388    8.5816 C.3     1  UNL1        0.1378
     27 O          61.2082   85.5877    7.2727 O.3     1  UNL1       -0.3820
     28 H          61.0196   86.2829    6.6231 H       1  UNL1        0.2104
     29 O          63.8587   91.7528   13.5917 O.3     1  UNL1       -0.4684
     30 C          65.2612   92.2540   13.4138 C.3     1  UNL1        0.2526
@<TRIPOS>BOND
     1    21    22    1
     2    22    13    1
     3    13    14   ar
     4    14    15   ar
     5     1    15    1
     6     1     2    1
     7     2     3   ar
     8     3     4   ar
     9     4     5    1
    10     4     6   ar
    11     6    29    1
    12    29    30    1
    13     6     7   ar
    14     7     8   ar
    15     8     9    1
    16     9    10    1
    17    10    23    1
    18    23    24    1
    19    10    11    1
    20    11    26    1
    21    26    27    1
    22    15    16   ar
    23    16    17   ar
    24    17    18   ar
    25    18    19    1
    26    18    13   ar
    27    11     1    1
    28     8     2   ar
    29     5    12    1
    30    24    25    1
    31    27    28    1
    32    19    20    1
@<TRIPOS>MOLECULE
*****
 30 32 0 0 0
SMALL
GASTEIGER

@<TRIPOS>ATOM
      1 C          62.9495   85.9350   11.9501 C.3     1  UNL1        0.0469
      2 C          63.2712   87.2833   12.5235 C.ar    1  UNL1       -0.0191
      3 C          63.0179   88.5216   11.7159 C.ar    1  UNL1        0.0355
      4 C          63.3396   89.8698   12.2893 C.ar    1  UNL1        0.1674
      5 O          63.0863   91.1082   11.4816 O.3     1  UNL1       -0.5029
      6 C          63.9145   89.9796   13.6704 C.ar    1  UNL1        0.1718
      7 C          64.1678   88.7413   14.4780 C.ar    1  UNL1        0.0355
      8 C          63.8461   87.3931   13.9046 C.ar    1  UNL1       -0.0225
      9 C          64.0994   86.1547   14.7123 C.3     1  UNL1        0.0287
     10 C          63.7777   84.8065   14.1388 C.3     1  UNL1        0.0367
     11 C          63.2028   84.6966   12.7578 C.3     1  UNL1        0.0401
     12 H          62.7272   91.0396   10.6189 H       1  UNL1        0.2923
     13 C          60.4582   86.3137    8.8842 C.ar    1  UNL1        0.1718
     14 C          61.0331   86.4236   10.2653 C.ar    1  UNL1        0.0361
     15 C          62.3746   85.8251   10.5690 C.ar    1  UNL1       -0.0151
     16 C          63.1412   85.1168    9.4917 C.ar    1  UNL1       -0.0006
     17 C          62.5662   85.0069    8.1106 C.ar    1  UNL1        0.0395
     18 C          61.2247   85.6054    7.8069 C.ar    1  UNL1        0.1677
     19 O          60.6498   85.4955    6.4258 O.3     1  UNL1       -0.5029
     20 H          61.1286   85.0531    5.7528 H       1  UNL1        0.2923
     21 C          59.0194   88.1381    7.7216 C.3     1  UNL1        0.2526
     22 O          59.1167   86.9122    8.5805 O.3     1  UNL1       -0.4684
     23 C          64.0310   83.5681   14.9465 C.3     1  UNL1        0.1375
     24 O          62.8829   82.8330   15.5723 O.3     1  UNL1       -0.3820
     25 H          62.4749   83.3903   16.2533 H       1  UNL1        0.2104
     26 C          62.8811   83.3484   12.1843 C.3     1  UNL1        0.1378
     27 O          63.9795   82.4820   11.6432 O.3     1  UNL1       -0.3820
     28 H          64.3673   82.9031   10.8601 H       1  UNL1        0.2104
     29 O          64.2362   91.3279   14.2438 O.3     1  UNL1       -0.4684
     30 C          65.6089   91.9078   14.0722 C.3     1  UNL1        0.2526
@<TRIPOS>BOND
     1    21    22    1
     2    22    13    1
     3    13    14   ar
     4    14    15   ar
     5     1    15    1
     6     1     2    1
     7     2     3   ar
     8     3     4   ar
     9     4     5    1
    10     4     6   ar
    11     6    29    1
    12    29    30    1
    13     6     7   ar
    14     7     8   ar
    15     8     9    1
    16     9    10    1
    17    10    23    1
    18    23    24    1
    19    10    11    1
    20    11    26    1
    21    26    27    1
    22    15    16   ar
    23    16    17   ar
    24    17    18   ar
    25    18    19    1
    26    18    13   ar
    27    11     1    1
    28     8     2   ar
    29     5    12    1
    30    24    25    1
    31    27    28    1
    32    19    20    1
@<TRIPOS>MOLECULE
*****
 30 32 0 0 0
SMALL
GASTEIGER

@<TRIPOS>ATOM
      1 C          63.9027   90.0560   13.3869 C.3     1  UNL1        0.0469
      2 C          63.0241   89.9005   12.1811 C.ar    1  UNL1       -0.0191
      3 C          61.9727   88.8311   12.1521 C.ar    1  UNL1        0.0355
      4 C          61.0942   88.6756   10.9463 C.ar    1  UNL1        0.1674
      5 O          60.0427   87.6061   10.9173 O.3     1  UNL1       -0.5029
      6 C          61.2671   89.5894    9.7695 C.ar    1  UNL1        0.1718
      7 C          62.3185   90.6588    9.7984 C.ar    1  UNL1        0.0355
      8 C          63.1970   90.8143   11.0042 C.ar    1  UNL1       -0.0225
      9 C          64.2485   91.8838   11.0332 C.3     1  UNL1        0.0287
     10 C          65.1270   92.0393   12.2390 C.3     1  UNL1        0.0367
     11 C          64.9541   91.1254   13.4158 C.3     1  UNL1        0.0401
     12 H          59.9347   87.0352   11.6525 H       1  UNL1        0.2923
     13 C          63.9977   86.7974   15.6501 C.ar    1  UNL1        0.1718
     14 C          64.1706   87.7113   14.4733 C.ar    1  UNL1        0.0361
     15 C          63.7298   89.1422   14.5637 C.ar    1  UNL1       -0.0151
     16 C          63.1161   89.6592   15.8311 C.ar    1  UNL1       -0.0006
     17 C          62.9432   88.7454   17.0079 C.ar    1  UNL1        0.0395
     18 C          63.3840   87.3144   16.9174 C.ar    1  UNL1        0.1677
     19 O          63.2112   86.4006   18.0942 O.3     1  UNL1       -0.5029
     20 H          62.8278   86.7235   18.8859 H       1  UNL1        0.2923
     21 C          63.4486   84.2979   15.2021 C.3     1  UNL1        0.2526
     22 O          64.4386   85.3665   15.5597 O.3     1  UNL1       -0.4684
     23 C          66.1785   93.1087   12.2680 C.3     1  UNL1        0.1375
     24 O          66.0101   94.3021   13.1611 O.3     1  UNL1       -0.3820
     25 H          65.2525   94.8274   12.8593 H       1  UNL1        0.2104
     26 C          65.8327   91.2810   14.6217 C.3     1  UNL1        0.1378
     27 O          65.5758   92.3896   15.5989 O.3     1  UNL1       -0.3820
     28 H          65.7378   93.2438   15.1687 H       1  UNL1        0.2104
     29 O          60.3885   89.4339    8.5637 O.3     1  UNL1       -0.4684
     30 C          60.1040   88.0674    8.0143 C.3     1  UNL1        0.2526
@<TRIPOS>BOND
     1    21    22    1
     2    22    13    1
     3    13    14   ar
     4    14    15   ar
     5     1    15    1
     6     1     2    1
     7     2     3   ar
     8     3     4   ar
     9     4     5    1
    10     4     6   ar
    11     6    29    1
    12    29    30    1
    13     6     7   ar
    14     7     8   ar
    15     8     9    1
    16     9    10    1
    17    10    23    1
    18    23    24    1
    19    10    11    1
    20    11    26    1
    21    26    27    1
    22    15    16   ar
    23    16    17   ar
    24    17    18   ar
    25    18    19    1
    26    18    13   ar
    27    11     1    1
    28     8     2   ar
    29     5    12    1
    30    24    25    1
    31    27    28    1
    32    19    20    1
@<TRIPOS>MOLECULE
*****
 30 32 0 0 0
SMALL
GASTEIGER

@<TRIPOS>ATOM
      1 C          62.8158   86.2632   12.0789 C.3     1  UNL1        0.0469
      2 C          63.2514   87.5710   12.6707 C.ar    1  UNL1       -0.0191
      3 C          62.9485   88.8550   11.9570 C.ar    1  UNL1        0.0355
      4 C          63.3840   90.1627   12.5487 C.ar    1  UNL1        0.1674
      5 O          63.0811   91.4469   11.8351 O.3     1  UNL1       -0.5029
      6 C          64.1225   90.1863   13.8542 C.ar    1  UNL1        0.1718
      7 C          64.4254   88.9023   14.5678 C.ar    1  UNL1        0.0355
      8 C          63.9898   87.5946   13.9761 C.ar    1  UNL1       -0.0225
      9 C          64.2927   86.3104   14.6898 C.3     1  UNL1        0.0287
     10 C          63.8571   85.0027   14.0980 C.3     1  UNL1        0.0367
     11 C          63.1187   84.9791   12.7926 C.3     1  UNL1        0.0401
     12 H          62.6198   91.4322   11.0196 H       1  UNL1        0.2923
     13 C          61.9462   85.5394    8.2750 C.ar    1  UNL1        0.1718
     14 C          62.6846   85.5630    9.5804 C.ar    1  UNL1        0.0361
     15 C          62.0774   86.2396   10.7735 C.ar    1  UNL1       -0.0151
     16 C          60.7316   86.8926   10.6612 C.ar    1  UNL1       -0.0006
     17 C          59.9931   86.8690    9.3557 C.ar    1  UNL1        0.0395
     18 C          60.6005   86.1924    8.1626 C.ar    1  UNL1        0.1677
     19 O          59.8620   86.1688    6.8572 O.3     1  UNL1       -0.5029
     20 H          59.0214   86.5766    6.7870 H       1  UNL1        0.2923
     21 C          61.6724   84.3457    5.9836 C.3     1  UNL1        0.2526
     22 O          62.5535   84.8628    7.0819 O.3     1  UNL1       -0.4684
     23 C          64.1600   83.7186   14.8117 C.3     1  UNL1        0.1375
     24 O          63.0629   82.9729   15.5119 O.3     1  UNL1       -0.3820
     25 H          62.7384   83.5007   16.2582 H       1  UNL1        0.2104
     26 C          62.6831   83.6714   12.2008 C.3     1  UNL1        0.1378
     27 O          63.6105   82.9092   11.3014 O.3     1  UNL1       -0.3820
     28 H          63.7589   83.4145   10.4869 H       1  UNL1        0.2104
     29 O          64.5580   91.4941   14.4459 O.3     1  UNL1       -0.4684
     30 C          65.8607   92.1095   14.0283 C.3     1  UNL1        0.2526
@<TRIPOS>BOND
     1    21    22    1
     2    22    13    1
     3    13    14   ar
     4    14    15   ar
     5     1    15    1
     6     1     2    1
     7     2     3   ar
     8     3     4   ar
     9     4     5    1
    10     4     6   ar
    11     6    29    1
    12    29    30    1
    13     6     7   ar
    14     7     8   ar
    15     8     9    1
    16     9    10    1
    17    10    23    1
    18    23    24    1
    19    10    11    1
    20    11    26    1
    21    26    27    1
    22    15    16   ar
    23    16    17   ar
    24    17    18   ar
    25    18    19    1
    26    18    13   ar
    27    11     1    1
    28     8     2   ar
    29     5    12    1
    30    24    25    1
    31    27    28    1
    32    19    20    1
@<TRIPOS>MOLECULE
*****
 30 32 0 0 0
SMALL
GASTEIGER

@<TRIPOS>ATOM
      1 C          63.2712   88.7363   12.7877 C.3     1  UNL1        0.0469
      2 C          63.4611   87.2754   13.0705 C.ar    1  UNL1       -0.0191
      3 C          64.1841   86.8392   14.3102 C.ar    1  UNL1        0.0355
      4 C          64.3739   85.3784   14.5929 C.ar    1  UNL1        0.1674
      5 O          65.0969   84.9422   15.8327 O.3     1  UNL1       -0.5029
      6 C          63.8408   84.3538   13.6358 C.ar    1  UNL1        0.1718
      7 C          63.1179   84.7900   12.3961 C.ar    1  UNL1        0.0355
      8 C          62.9280   86.2508   12.1134 C.ar    1  UNL1       -0.0225
      9 C          62.2051   86.6871   10.8736 C.3     1  UNL1        0.0287
     10 C          62.0152   88.1479   10.5909 C.3     1  UNL1        0.0367
     11 C          62.5483   89.1725   11.5480 C.3     1  UNL1        0.0401
     12 H          65.4299   85.5822   16.4306 H       1  UNL1        0.2923
     13 C          65.4097   91.7373   14.2611 C.ar    1  UNL1        0.1718
     14 C          64.8766   90.7127   13.3040 C.ar    1  UNL1        0.0361
     15 C          63.8043   89.7609   13.7448 C.ar    1  UNL1       -0.0151
     16 C          63.2651   89.8337   15.1427 C.ar    1  UNL1       -0.0006
     17 C          63.7982   90.8583   16.0997 C.ar    1  UNL1        0.0395
     18 C          64.8705   91.8101   15.6589 C.ar    1  UNL1        0.1677
     19 O          65.4036   92.8347   16.6160 O.3     1  UNL1       -0.5029
     20 H          65.0668   92.8802   17.4892 H       1  UNL1        0.2923
     21 C          66.2978   93.5006   12.5723 C.3     1  UNL1        0.2526
     22 O          66.4820   92.6891   13.8203 O.3     1  UNL1       -0.4684
     23 C          61.2922   88.5841    9.3511 C.3     1  UNL1        0.1375
     24 O          59.9143   89.1682    9.4527 O.3     1  UNL1       -0.3820
     25 H          59.2981   88.4895    9.7697 H       1  UNL1        0.2104
     26 C          62.3584   90.6333   11.2652 C.3     1  UNL1        0.1378
     27 O          61.0048   91.2590   11.4277 O.3     1  UNL1       -0.3820
     28 H          60.3955   90.8861   10.7715 H       1  UNL1        0.2104
     29 O          64.0307   82.8929   13.9186 O.3     1  UNL1       -0.4684
     30 C          62.8378   81.9929   14.0483 C.3     1  UNL1        0.2526
@<TRIPOS>BOND
     1    21    22    1
     2    22    13    1
     3    13    14   ar
     4    14    15   ar
     5     1    15    1
     6     1     2    1
     7     2     3   ar
     8     3     4   ar
     9     4     5    1
    10     4     6   ar
    11     6    29    1
    12    29    30    1
    13     6     7   ar
    14     7     8   ar
    15     8     9    1
    16     9    10    1
    17    10    23    1
    18    23    24    1
    19    10    11    1
    20    11    26    1
    21    26    27    1
    22    15    16   ar
    23    16    17   ar
    24    17    18   ar
    25    18    19    1
    26    18    13   ar
    27    11     1    1
    28     8     2   ar
    29     5    12    1
    30    24    25    1
    31    27    28    1
    32    19    20    1
@<TRIPOS>MOLECULE
*****
 30 32 0 0 0
SMALL
GASTEIGER

@<TRIPOS>ATOM
      1 C          62.4456   87.2763   11.7220 C.3     1  UNL1        0.0469
      2 C          62.8430   86.0401   12.4730 C.ar    1  UNL1       -0.0191
      3 C          62.3427   84.6982   12.0270 C.ar    1  UNL1        0.0355
      4 C          62.7400   83.4621   12.7780 C.ar    1  UNL1        0.1674
      5 O          62.2397   82.1201   12.3320 O.3     1  UNL1       -0.5029
      6 C          63.6377   83.5679   13.9751 C.ar    1  UNL1        0.1718
      7 C          64.1380   84.9098   14.4212 C.ar    1  UNL1        0.0355
      8 C          63.7406   86.1459   13.6701 C.ar    1  UNL1       -0.0225
      9 C          64.2409   87.4879   14.1162 C.3     1  UNL1        0.0287
     10 C          63.8435   88.7240   13.3651 C.3     1  UNL1        0.0367
     11 C          62.9459   88.6182   12.1680 C.3     1  UNL1        0.0401
     12 H          61.6790   82.0540   11.5842 H       1  UNL1        0.2923
     13 C          61.0687   86.2395    8.1472 C.ar    1  UNL1        0.1718
     14 C          61.9663   86.3453    9.3443 C.ar    1  UNL1        0.0361
     15 C          61.5479   87.1705   10.5249 C.ar    1  UNL1       -0.0151
     16 C          60.2318   87.8900   10.5084 C.ar    1  UNL1       -0.0006
     17 C          59.3342   87.7843    9.3114 C.ar    1  UNL1        0.0395
     18 C          59.7526   86.9589    8.1307 C.ar    1  UNL1        0.1677
     19 O          58.8550   86.8532    6.9336 O.3     1  UNL1       -0.5029
     20 H          58.0329   87.3026    6.9233 H       1  UNL1        0.2923
     21 C          62.7523   84.6104    7.0239 C.3     1  UNL1        0.2526
     22 O          61.4871   85.4142    6.9666 O.3     1  UNL1       -0.4684
     23 C          64.3438   90.0659   13.8112 C.3     1  UNL1        0.1375
     24 O          63.3889   91.0684   14.3884 O.3     1  UNL1       -0.3820
     25 H          62.7612   91.3484   13.7039 H       1  UNL1        0.2104
     26 C          62.5485   89.8544   11.4170 C.3     1  UNL1        0.1378
     27 O          61.5127   90.7777   11.9867 O.3     1  UNL1       -0.3820
     28 H          60.6561   90.3235   12.0166 H       1  UNL1        0.2104
     29 O          64.0351   82.3317   14.7262 O.3     1  UNL1       -0.4684
     30 C          63.9662   80.9919   14.0552 C.3     1  UNL1        0.2526
@<TRIPOS>BOND
     1    21    22    1
     2    22    13    1
     3    13    14   ar
     4    14    15   ar
     5     1    15    1
     6     1     2    1
     7     2     3   ar
     8     3     4   ar
     9     4     5    1
    10     4     6   ar
    11     6    29    1
    12    29    30    1
    13     6     7   ar
    14     7     8   ar
    15     8     9    1
    16     9    10    1
    17    10    23    1
    18    23    24    1
    19    10    11    1
    20    11    26    1
    21    26    27    1
    22    15    16   ar
    23    16    17   ar
    24    17    18   ar
    25    18    19    1
    26    18    13   ar
    27    11     1    1
    28     8     2   ar
    29     5    12    1
    30    24    25    1
    31    27    28    1
    32    19    20    1
@<TRIPOS>MOLECULE
*****
 30 32 0 0 0
SMALL
GASTEIGER

@<TRIPOS>ATOM
      1 C          62.3260   88.2847   11.1927 C.3     1  UNL1        0.0469
      2 C          62.5634   86.8885   11.6873 C.ar    1  UNL1       -0.0191
      3 C          63.5284   86.6443   12.8094 C.ar    1  UNL1        0.0355
      4 C          63.7658   85.2483   13.3039 C.ar    1  UNL1        0.1674
      5 O          64.7308   85.0040   14.4261 O.3     1  UNL1       -0.5029
      6 C          63.0382   84.0964   12.6763 C.ar    1  UNL1        0.1718
      7 C          62.0733   84.3406   11.5542 C.ar    1  UNL1        0.0355
      8 C          61.8359   85.7367   11.0597 C.ar    1  UNL1       -0.0225
      9 C          60.8709   85.9809    9.9375 C.3     1  UNL1        0.0287
     10 C          60.6335   87.3770    9.4430 C.3     1  UNL1        0.0367
     11 C          61.3610   88.5289   10.0706 C.3     1  UNL1        0.0401
     12 H          65.1853   85.7235   14.8181 H       1  UNL1        0.2923
     13 C          63.8636   90.6992   13.9414 C.ar    1  UNL1        0.1718
     14 C          63.1360   89.5474   13.3139 C.ar    1  UNL1        0.0361
     15 C          63.0536   89.4365   11.8203 C.ar    1  UNL1       -0.0151
     16 C          63.6987   90.4776   10.9542 C.ar    1  UNL1       -0.0006
     17 C          64.4263   91.6295   11.5818 C.ar    1  UNL1        0.0395
     18 C          64.5087   91.7403   13.0754 C.ar    1  UNL1        0.1677
     19 O          65.2363   92.8921   13.7030 O.3     1  UNL1       -0.5029
     20 H          65.6393   93.5424   13.1620 H       1  UNL1        0.2923
     21 C          63.3007   89.7692   16.3011 C.3     1  UNL1        0.2526
     22 O          63.9460   90.8101   15.4351 O.3     1  UNL1       -0.4684
     23 C          59.6685   87.6213    8.3209 C.3     1  UNL1        0.1375
     24 O          58.5585   86.6464    8.0606 O.3     1  UNL1       -0.3820
     25 H          58.9331   85.7997    7.7712 H       1  UNL1        0.2104
     26 C          61.1236   89.9250    9.5760 C.3     1  UNL1        0.1378
     27 O          59.9519   90.7116   10.0842 O.3     1  UNL1       -0.3820
     28 H          59.1285   90.2925    9.7887 H       1  UNL1        0.2104
     29 O          63.2757   82.7003   13.1709 O.3     1  UNL1       -0.4684
     30 C          62.3205   82.0772   14.1453 C.3     1  UNL1        0.2526
@<TRIPOS>BOND
     1    21    22    1
     2    22    13    1
     3    13    14   ar
     4    14    15   ar
     5     1    15    1
     6     1     2    1
     7     2     3   ar
     8     3     4   ar
     9     4     5    1
    10     4     6   ar
    11     6    29    1
    12    29    30    1
    13     6     7   ar
    14     7     8   ar
    15     8     9    1
    16     9    10    1
    17    10    23    1
    18    23    24    1
    19    10    11    1
    20    11    26    1
    21    26    27    1
    22    15    16   ar
    23    16    17   ar
    24    17    18   ar
    25    18    19    1
    26    18    13   ar
    27    11     1    1
    28     8     2   ar
    29     5    12    1
    30    24    25    1
    31    27    28    1
    32    19    20    1
