@<TRIPOS>MOLECULE
*****
 32 36 0 0 0
SMALL
GASTEIGER

@<TRIPOS>ATOM
      1 N          63.6858   90.1993   12.8284 N.ar    1  UNL1       -0.2938
      2 C          64.4794   90.2394   14.1006 C.ar    1  UNL1        0.1934
      3 N          64.4742   88.8616   14.6939 N.ar    1  UNL1       -0.1224
      4 N          63.6772   87.9701   13.7882 N.ar    1  UNL1       -0.1328
      5 C          63.1900   88.7968   12.6353 C.ar    1  UNL1        0.1438
      6 C          62.3538   88.3070   11.4905 C.3     1  UNL1        0.0675
      7 C          61.0513   88.8952   11.0350 C.3     1  UNL1        0.0339
      8 C          60.5658   88.0947    9.8630 C.ar    1  UNL1       -0.0257
      9 C          59.3404   88.2119    9.0059 C.ar    1  UNL1       -0.0046
     10 C          59.1175   87.2462    7.8800 C.ar    1  UNL1       -0.0003
     11 C          60.1199   86.1632    7.6111 C.ar    1  UNL1       -0.0003
     12 C          61.3453   86.0460    8.4683 C.ar    1  UNL1       -0.0046
     13 C          61.5683   87.0116    9.5942 C.ar    1  UNL1       -0.0257
     14 C          62.6733   87.1429   10.6001 C.3     1  UNL1        0.0339
     15 C          63.7932   91.2574   10.4580 C.3     1  UNL1        0.0266
     16 C          63.4324   91.3582   11.9104 C.3     1  UNL1        0.1092
     17 S          65.1590   91.4454   14.6782 S.3     1  UNL1       -0.0658
     18 C          66.6450   91.6035   14.5474 C.3     1  UNL1        0.1501
     19 C          67.2474   91.9593   13.2206 C.2     1  UNL1        0.2376
     20 O          68.6736   91.6010   12.9241 O.2     1  UNL1       -0.2738
     21 N          66.4238   92.6734   12.1902 N.am    1  UNL1       -0.2832
     22 H          65.4878   92.9085   12.3848 H       1  UNL1        0.1549
     23 C          67.0262   93.0292   10.8634 C.ar    1  UNL1        0.0503
     24 C          68.0249   92.1114   10.2228 C.ar    1  UNL1        0.0147
     25 C          68.6273   92.4672    8.8960 C.ar    1  UNL1        0.0013
     26 C          68.2311   93.7408    8.2097 C.ar    1  UNL1        0.0001
     27 C          67.2324   94.6586    8.8503 C.ar    1  UNL1        0.0012
     28 C          66.8362   95.9322    8.1640 C.ar    1  UNL1        0.0000
     29 C          65.8376   96.8500    8.8046 C.ar    1  UNL1        0.0000
     30 C          65.2352   96.4942   10.1314 C.ar    1  UNL1        0.0000
     31 C          65.6314   95.2206   10.8177 C.ar    1  UNL1        0.0012
     32 C          66.6300   94.3028   10.1771 C.ar    1  UNL1        0.0135
@<TRIPOS>BOND
     1    15    16    1
     2    16     1    1
     3     1     2   ar
     4     2    17    1
     5    17    18    1
     6    18    19    1
     7    19    20    2
     8    19    21   am
     9    21    23    1
    10    23    24   ar
    11    24    25   ar
    12    25    26   ar
    13    26    27   ar
    14    27    28   ar
    15    28    29   ar
    16    29    30   ar
    17    30    31   ar
    18    31    32   ar
    19     2     3   ar
    20     3     4   ar
    21     4     5   ar
    22     5     6    1
    23     6     7    1
    24     7     8    1
    25     8     9   ar
    26     9    10   ar
    27    10    11   ar
    28    11    12   ar
    29    12    13   ar
    30    13    14    1
    31     5     1   ar
    32    14     6    1
    33    32    23   ar
    34    13     8   ar
    35    32    27   ar
    36    21    22    1
@<TRIPOS>MOLECULE
*****
 32 36 0 0 0
SMALL
GASTEIGER

@<TRIPOS>ATOM
      1 N          63.8816   87.8030   15.4808 N.ar    1  UNL1       -0.2938
      2 C          63.1808   87.2868   16.7024 C.ar    1  UNL1        0.1934
      3 N          62.5755   88.4573   17.4190 N.ar    1  UNL1       -0.1224
      4 N          62.9023   89.6970   16.6402 N.ar    1  UNL1       -0.1328
      5 C          63.7095   89.2926   15.4423 C.ar    1  UNL1        0.1438
      6 C          64.2497   90.2158   14.3907 C.3     1  UNL1        0.0675
      7 C          63.6928   90.4019   13.0104 C.3     1  UNL1        0.0339
      8 C          64.5406   91.4161   12.3014 C.ar    1  UNL1       -0.0257
      9 C          64.4681   91.9952   10.9197 C.ar    1  UNL1       -0.0046
     10 C          65.4764   93.0151   10.4801 C.ar    1  UNL1       -0.0003
     11 C          66.5573   93.4558   11.4221 C.ar    1  UNL1       -0.0003
     12 C          66.6298   92.8766   12.8039 C.ar    1  UNL1       -0.0046
     13 C          65.6215   91.8568   13.2436 C.ar    1  UNL1       -0.0257
     14 C          65.4417   91.1149   14.5348 C.3     1  UNL1        0.0339
     15 C          65.6317   85.9628   14.9325 C.3     1  UNL1        0.0266
     16 C          64.6242   86.9751   14.4743 C.3     1  UNL1        0.1092
     17 S          63.0995   85.8519   17.1320 S.3     1  UNL1       -0.0658
     18 C          62.2367   84.8890   16.3713 C.3     1  UNL1        0.1501
     19 C          62.7645   84.2252   15.1340 C.2     1  UNL1        0.2376
     20 O          63.6252   83.0019   15.2482 O.2     1  UNL1       -0.2738
     21 N          62.4317   84.7845   13.7827 N.am    1  UNL1       -0.2832
     22 H          61.8668   85.5874   13.7077 H       1  UNL1        0.1549
     23 C          62.9594   84.1207   12.5454 C.ar    1  UNL1        0.0503
     24 C          63.6542   82.7950   12.6438 C.ar    1  UNL1        0.0147
     25 C          64.1820   82.1312   11.4065 C.ar    1  UNL1        0.0013
     26 C          64.0150   82.7931   10.0709 C.ar    1  UNL1        0.0001
     27 C          63.3202   84.1189    9.9725 C.ar    1  UNL1        0.0012
     28 C          63.1532   84.7808    8.6368 C.ar    1  UNL1        0.0000
     29 C          62.4584   86.1065    8.5385 C.ar    1  UNL1        0.0000
     30 C          61.9306   86.7703    9.7757 C.ar    1  UNL1        0.0000
     31 C          62.0976   86.1084   11.1113 C.ar    1  UNL1        0.0012
     32 C          62.7924   84.7827   11.2097 C.ar    1  UNL1        0.0135
@<TRIPOS>BOND
     1    15    16    1
     2    16     1    1
     3     1     2   ar
     4     2    17    1
     5    17    18    1
     6    18    19    1
     7    19    20    2
     8    19    21   am
     9    21    23    1
    10    23    24   ar
    11    24    25   ar
    12    25    26   ar
    13    26    27   ar
    14    27    28   ar
    15    28    29   ar
    16    29    30   ar
    17    30    31   ar
    18    31    32   ar
    19     2     3   ar
    20     3     4   ar
    21     4     5   ar
    22     5     6    1
    23     6     7    1
    24     7     8    1
    25     8     9   ar
    26     9    10   ar
    27    10    11   ar
    28    11    12   ar
    29    12    13   ar
    30    13    14    1
    31     5     1   ar
    32    14     6    1
    33    32    23   ar
    34    13     8   ar
    35    32    27   ar
    36    21    22    1
@<TRIPOS>MOLECULE
*****
 32 36 0 0 0
SMALL
GASTEIGER

@<TRIPOS>ATOM
      1 N          63.8795   88.0150   15.4903 N.ar    1  UNL1       -0.2938
      2 C          63.2764   87.5579   16.7854 C.ar    1  UNL1        0.1934
      3 N          62.8561   88.7744   17.5558 N.ar    1  UNL1       -0.1224
      4 N          63.1995   89.9833   16.7368 N.ar    1  UNL1       -0.1328
      5 C          63.8320   89.5139   15.4602 C.ar    1  UNL1        0.1438
      6 C          64.3296   90.3897   14.3488 C.3     1  UNL1        0.0675
      7 C          65.5283   91.2897   14.4047 C.3     1  UNL1        0.0339
      8 C          65.6553   91.9756   13.0767 C.ar    1  UNL1       -0.0257
      9 C          66.6463   92.9721   12.5525 C.ar    1  UNL1       -0.0046
     10 C          66.5171   93.4925   11.1517 C.ar    1  UNL1       -0.0003
     11 C          65.3968   93.0165   10.2750 C.ar    1  UNL1       -0.0003
     12 C          64.4058   92.0200   10.7992 C.ar    1  UNL1       -0.0046
     13 C          64.5351   91.4995   12.2001 C.ar    1  UNL1       -0.0257
     14 C          63.7157   90.5194   12.9863 C.3     1  UNL1        0.0339
     15 C          65.3884   86.0275   14.7669 C.3     1  UNL1        0.0266
     16 C          64.4331   87.1287   14.4141 C.3     1  UNL1        0.1092
     17 S          63.1209   86.1343   17.2317 S.3     1  UNL1       -0.0658
     18 C          62.0855   85.2568   16.5928 C.3     1  UNL1        0.1501
     19 C          62.5076   84.1130   15.7190 C.2     1  UNL1        0.2376
     20 O          63.8317   83.4454   15.9450 O.2     1  UNL1       -0.2738
     21 N          61.6056   83.6369   14.6192 N.am    1  UNL1       -0.2832
     22 H          60.7365   84.0751   14.4708 H       1  UNL1        0.1549
     23 C          62.0276   82.4931   13.7453 C.ar    1  UNL1        0.0503
     24 C          61.7978   81.0809   14.1954 C.ar    1  UNL1        0.0147
     25 C          62.2198   79.9371   13.3216 C.ar    1  UNL1        0.0013
     26 C          62.8716   80.2055   11.9976 C.ar    1  UNL1        0.0001
     27 C          63.1015   81.6179   11.5474 C.ar    1  UNL1        0.0012
     28 C          63.7534   81.8863   10.2234 C.ar    1  UNL1        0.0000
     29 C          63.9832   83.2986    9.7733 C.ar    1  UNL1        0.0000
     30 C          63.5611   84.4424   10.6471 C.ar    1  UNL1        0.0000
     31 C          62.9093   84.1739   11.9711 C.ar    1  UNL1        0.0012
     32 C          62.6795   82.7616   12.4212 C.ar    1  UNL1        0.0135
@<TRIPOS>BOND
     1    15    16    1
     2    16     1    1
     3     1     2   ar
     4     2    17    1
     5    17    18    1
     6    18    19    1
     7    19    20    2
     8    19    21   am
     9    21    23    1
    10    23    24   ar
    11    24    25   ar
    12    25    26   ar
    13    26    27   ar
    14    27    28   ar
    15    28    29   ar
    16    29    30   ar
    17    30    31   ar
    18    31    32   ar
    19     2     3   ar
    20     3     4   ar
    21     4     5   ar
    22     5     6    1
    23     6     7    1
    24     7     8    1
    25     8     9   ar
    26     9    10   ar
    27    10    11   ar
    28    11    12   ar
    29    12    13   ar
    30    13    14    1
    31     5     1   ar
    32    14     6    1
    33    32    23   ar
    34    13     8   ar
    35    32    27   ar
    36    21    22    1
@<TRIPOS>MOLECULE
*****
 32 36 0 0 0
SMALL
GASTEIGER

@<TRIPOS>ATOM
      1 N          63.2921   86.9610   13.2063 N.ar    1  UNL1       -0.2938
      2 C          63.5256   86.6509   14.6552 C.ar    1  UNL1        0.1934
      3 N          63.1858   85.2074   14.8809 N.ar    1  UNL1       -0.1224
      4 N          62.7422   84.6255   13.5714 N.ar    1  UNL1       -0.1328
      5 C          62.8079   85.7093   12.5365 C.ar    1  UNL1        0.1438
      6 C          62.4519   85.5663   11.0864 C.3     1  UNL1        0.0675
      7 C          63.2700   84.8654   10.0426 C.3     1  UNL1        0.0339
      8 C          62.5390   84.9651    8.7366 C.ar    1  UNL1       -0.0257
      9 C          62.8656   84.4601    7.3625 C.ar    1  UNL1       -0.0046
     10 C          61.9223   84.7176    6.2250 C.ar    1  UNL1       -0.0003
     11 C          60.6524   85.4802    6.4615 C.ar    1  UNL1       -0.0003
     12 C          60.3258   85.9852    7.8357 C.ar    1  UNL1       -0.0046
     13 C          61.2691   85.7277    8.9732 C.ar    1  UNL1       -0.0257
     14 C          61.2153   86.0993   10.4255 C.3     1  UNL1        0.0339
     15 C          62.3264   89.1066   12.1045 C.3     1  UNL1        0.0266
     16 C          63.5053   88.2897   12.5436 C.3     1  UNL1        0.1092
     17 S          64.0134   87.6149   15.6957 S.3     1  UNL1       -0.0658
     18 C          63.2652   88.8908   15.9455 C.3     1  UNL1        0.1501
     19 C          63.9425   90.2119   15.7307 C.2     1  UNL1        0.2376
     20 O          63.4221   91.4415   16.4144 O.2     1  UNL1       -0.2738
     21 N          65.1402   90.3033   14.8324 N.am    1  UNL1       -0.2832
     22 H          65.4817   89.4963   14.3837 H       1  UNL1        0.1549
     23 C          65.8175   91.6243   14.6176 C.ar    1  UNL1        0.0503
     24 C          66.6127   92.2484   15.7258 C.ar    1  UNL1        0.0147
     25 C          67.2901   93.5694   15.5110 C.ar    1  UNL1        0.0013
     26 C          67.1722   94.2663   14.1880 C.ar    1  UNL1        0.0001
     27 C          66.3770   93.6423   13.0797 C.ar    1  UNL1        0.0012
     28 C          66.2592   94.3392   11.7567 C.ar    1  UNL1        0.0000
     29 C          65.4640   93.7151   10.6485 C.ar    1  UNL1        0.0000
     30 C          64.7867   92.3941   10.8633 C.ar    1  UNL1        0.0000
     31 C          64.9045   91.6972   12.1863 C.ar    1  UNL1        0.0012
     32 C          65.6997   92.3212   13.2945 C.ar    1  UNL1        0.0135
@<TRIPOS>BOND
     1    15    16    1
     2    16     1    1
     3     1     2   ar
     4     2    17    1
     5    17    18    1
     6    18    19    1
     7    19    20    2
     8    19    21   am
     9    21    23    1
    10    23    24   ar
    11    24    25   ar
    12    25    26   ar
    13    26    27   ar
    14    27    28   ar
    15    28    29   ar
    16    29    30   ar
    17    30    31   ar
    18    31    32   ar
    19     2     3   ar
    20     3     4   ar
    21     4     5   ar
    22     5     6    1
    23     6     7    1
    24     7     8    1
    25     8     9   ar
    26     9    10   ar
    27    10    11   ar
    28    11    12   ar
    29    12    13   ar
    30    13    14    1
    31     5     1   ar
    32    14     6    1
    33    32    23   ar
    34    13     8   ar
    35    32    27   ar
    36    21    22    1
@<TRIPOS>MOLECULE
*****
 32 36 0 0 0
SMALL
GASTEIGER

@<TRIPOS>ATOM
      1 N          63.5190   87.8892   13.3827 N.ar    1  UNL1       -0.2938
      2 C          63.7895   89.1237   14.1905 C.ar    1  UNL1        0.1934
      3 N          63.9431   88.7143   15.6254 N.ar    1  UNL1       -0.1224
      4 N          63.7674   87.2267   15.7043 N.ar    1  UNL1       -0.1328
      5 C          63.5053   86.7167   14.3182 C.ar    1  UNL1        0.1438
      6 C          63.2707   85.2857   13.9350 C.3     1  UNL1        0.0675
      7 C          62.5093   84.2717   14.7364 C.3     1  UNL1        0.0339
      8 C          62.5244   82.9766   13.9798 C.ar    1  UNL1       -0.0257
      9 C          61.9360   81.6305   14.2824 C.ar    1  UNL1       -0.0046
     10 C          62.1182   80.4979   13.3160 C.ar    1  UNL1       -0.0003
     11 C          62.8889   80.7113   12.0469 C.ar    1  UNL1       -0.0003
     12 C          63.4774   82.0575   11.7443 C.ar    1  UNL1       -0.0046
     13 C          63.2952   83.1901   12.7107 C.ar    1  UNL1       -0.0257
     14 C          63.7564   84.6172   12.6831 C.3     1  UNL1        0.0339
     15 C          61.9442   87.5026   11.3527 C.3     1  UNL1        0.0266
     16 C          63.3004   87.8363   11.8996 C.3     1  UNL1        0.1092
     17 S          63.8890   90.5222   13.6572 S.3     1  UNL1       -0.0658
     18 C          63.4148   90.8305   12.2679 C.3     1  UNL1        0.1501
     19 C          64.3417   91.4856   11.2872 C.2     1  UNL1        0.2376
     20 O          63.8646   91.8023    9.9007 O.2     1  UNL1       -0.2738
     21 N          65.7455   91.8240   11.6928 N.am    1  UNL1       -0.2832
     22 H          66.0586   91.6162   12.6028 H       1  UNL1        0.1549
     23 C          66.6724   92.4792   10.7122 C.ar    1  UNL1        0.0503
     24 C          67.7500   91.6756   10.0467 C.ar    1  UNL1        0.0147
     25 C          68.6769   92.3307    9.0660 C.ar    1  UNL1        0.0013
     26 C          68.5261   93.7894    8.7508 C.ar    1  UNL1        0.0001
     27 C          67.4484   94.5930    9.4162 C.ar    1  UNL1        0.0012
     28 C          67.2977   96.0517    9.1010 C.ar    1  UNL1        0.0000
     29 C          66.2201   96.8553    9.7665 C.ar    1  UNL1        0.0000
     30 C          65.2932   96.2002   10.7472 C.ar    1  UNL1        0.0000
     31 C          65.4440   94.7415   11.0624 C.ar    1  UNL1        0.0012
     32 C          66.5216   93.9379   10.3969 C.ar    1  UNL1        0.0135
@<TRIPOS>BOND
     1    15    16    1
     2    16     1    1
     3     1     2   ar
     4     2    17    1
     5    17    18    1
     6    18    19    1
     7    19    20    2
     8    19    21   am
     9    21    23    1
    10    23    24   ar
    11    24    25   ar
    12    25    26   ar
    13    26    27   ar
    14    27    28   ar
    15    28    29   ar
    16    29    30   ar
    17    30    31   ar
    18    31    32   ar
    19     2     3   ar
    20     3     4   ar
    21     4     5   ar
    22     5     6    1
    23     6     7    1
    24     7     8    1
    25     8     9   ar
    26     9    10   ar
    27    10    11   ar
    28    11    12   ar
    29    12    13   ar
    30    13    14    1
    31     5     1   ar
    32    14     6    1
    33    32    23   ar
    34    13     8   ar
    35    32    27   ar
    36    21    22    1
