@<TRIPOS>MOLECULE
*****
 40 44 0 0 0
SMALL
GASTEIGER

@<TRIPOS>ATOM
      1 C          61.6821   88.5720   11.2232 C.ar    1  UNL1        0.0040
      2 C          61.3563   87.4445   10.2890 C.ar    1  UNL1        0.0719
      3 C          62.0204   86.2045   10.8098 C.ar    1  UNL1        0.1049
      4 N          62.7567   86.5656   12.0659 N.ar    1  UNL1       -0.2242
      5 N          63.5904   85.7510   13.0100 N.ar    1  UNL1       -0.1422
      6 C          64.2151   86.3997   14.2095 C.ar    1  UNL1        0.2211
      7 N          64.0060   87.8629   14.4650 N.ar    1  UNL1       -0.2060
      8 C          63.1722   88.6775   13.5209 C.ar    1  UNL1        0.1515
      9 C          62.5475   88.0288   12.3214 C.ar    1  UNL1        0.1107
     10 C          60.5142   87.5402    9.0514 C.ar    1  UNL1        0.2525
     11 N          59.9763   86.3855    8.2595 N.ar    1  UNL1       -0.1057
     12 N          59.1919   86.9391    7.1070 N.ar    1  UNL1       -0.0923
     13 C          59.2450   88.4360    7.1866 C.ar    1  UNL1        0.3087
     14 O          60.0623   88.8075    8.3883 O.2     1  UNL1       -0.4048
     15 N          58.5950   89.3934    6.2322 N.pl3   1  UNL1       -0.2846
     16 H          57.6457   89.2842    5.9955 H       1  UNL1        0.1512
     17 C          59.3915   90.5172    5.6382 C.3     1  UNL1        0.1228
     18 C          58.7047   91.5780    4.8304 C.3     1  UNL1        0.1584
     19 O          57.3213   92.0246    5.2005 O.3     1  UNL1       -0.3802
     20 H          56.6991   91.2922    5.0691 H       1  UNL1        0.2105
     21 C          62.1284   91.0165   10.4648 C.3     1  UNL1        0.0047
     22 C          61.2230   89.9932   11.0837 C.3     1  UNL1        0.0241
     23 C          59.8586   90.3911   11.5631 C.3     1  UNL1        0.0047
     24 N          62.9630   90.1407   13.7764 N.pl3   1  UNL1       -0.2949
     25 H          62.0508   90.5095   13.8072 H       1  UNL1        0.1537
     26 C          64.1438   91.0419   13.9848 C.ar    1  UNL1        0.0775
     27 C          64.8331   91.6602   12.8047 C.ar    1  UNL1        0.0237
     28 C          66.0139   92.5614   13.0131 C.ar    1  UNL1        0.0821
     29 C          66.5055   92.8444   14.4017 C.ar    1  UNL1        0.1468
     30 F          67.6863   93.7457   14.6101 F       1  UNL1       -0.2039
     31 C          65.8163   92.2262   15.5819 C.ar    1  UNL1        0.0607
     32 C          64.6354   91.3249   15.3734 C.ar    1  UNL1        0.1557
     33 F          63.9462   90.7067   16.5536 F       1  UNL1       -0.2028
     34 C          66.7031   93.1797   11.8329 C.2     1  UNL1        0.2480
     35 O          67.8583   92.4754   11.1854 O.2     1  UNL1       -0.2701
     36 N          66.2371   94.5022   11.3004 N.am    1  UNL1       -0.3024
     37 H          65.4789   94.9645   11.7254 H       1  UNL1        0.1497
     38 C          66.9263   95.1205   10.1203 C.3     1  UNL1        0.0720
     39 C          67.3272   96.3380    9.3411 C.3     1  UNL1        0.0213
     40 C          67.7191   94.9740    8.8554 C.3     1  UNL1        0.0213
@<TRIPOS>BOND
     1    21    22    1
     2    22    23    1
     3    22     1    1
     4     1     2   ar
     5     2    10    1
     6    10    11   ar
     7    11    12   ar
     8    12    13   ar
     9    13    15    1
    10    15    17    1
    11    17    18    1
    12    18    19    1
    13    13    14   ar
    14     2     3   ar
    15     3     4   ar
    16     4     5   ar
    17     5     6   ar
    18     6     7   ar
    19     7     8   ar
    20     8    24    1
    21    24    26    1
    22    26    27   ar
    23    27    28   ar
    24    28    34    1
    25    34    35    2
    26    34    36   am
    27    36    38    1
    28    38    39    1
    29    39    40    1
    30    28    29   ar
    31    29    30    1
    32    29    31   ar
    33    31    32   ar
    34    32    33    1
    35     8     9   ar
    36     9     1   ar
    37    14    10   ar
    38     9     4   ar
    39    32    26   ar
    40    40    38    1
    41    15    16    1
    42    19    20    1
    43    24    25    1
    44    36    37    1
@<TRIPOS>MOLECULE
*****
 40 44 0 0 0
SMALL
GASTEIGER

@<TRIPOS>ATOM
      1 C          62.9647   86.5353   12.2042 C.ar    1  UNL1        0.0040
      2 C          62.8110   85.5450   11.0880 C.ar    1  UNL1        0.0719
      3 C          62.2259   86.2634    9.9084 C.ar    1  UNL1        0.1049
      4 N          62.0180   87.6977   10.2955 N.ar    1  UNL1       -0.2242
      5 N          61.4718   88.8723    9.5393 N.ar    1  UNL1       -0.1422
      6 C          61.3824   90.2150   10.2020 C.ar    1  UNL1        0.2211
      7 N          61.8391   90.3830   11.6209 N.ar    1  UNL1       -0.2060
      8 C          62.3852   89.2083   12.3771 C.ar    1  UNL1        0.1515
      9 C          62.4746   87.8657   11.7144 C.ar    1  UNL1        0.1107
     10 C          63.1779   84.0916   11.1420 C.ar    1  UNL1        0.2525
     11 N          64.3640   83.4565   10.4788 N.ar    1  UNL1       -0.1057
     12 N          64.3424   81.9905   10.7956 N.ar    1  UNL1       -0.0923
     13 C          63.1429   81.7195   11.6546 C.ar    1  UNL1        0.3087
     14 O          62.4233   83.0181   11.8687 O.2     1  UNL1       -0.4048
     15 N          62.7347   80.3845   12.2032 N.pl3   1  UNL1       -0.2846
     16 H          62.7610   79.5866   11.6270 H       1  UNL1        0.1512
     17 C          62.2866   80.2650   13.6297 C.3     1  UNL1        0.1228
     18 C          61.1276   81.0797   14.1224 C.3     1  UNL1        0.1584
     19 O          59.8037   80.4224   14.3780 O.3     1  UNL1       -0.3802
     20 H          59.4336   80.1040   13.5399 H       1  UNL1        0.2105
     21 C          64.5837   87.1216   14.1498 C.3     1  UNL1        0.0047
     22 C          63.5124   86.2459   13.5703 C.3     1  UNL1        0.0241
     23 C          62.9890   85.0811   14.3570 C.3     1  UNL1        0.0047
     24 N          62.8418   89.3763   13.7960 N.pl3   1  UNL1       -0.2949
     25 H          62.4538   88.8173   14.5074 H       1  UNL1        0.1537
     26 C          63.8897   90.3959   14.1308 C.ar    1  UNL1        0.0775
     27 C          64.7731   90.9462   13.0506 C.ar    1  UNL1        0.0237
     28 C          65.8210   91.9659   13.3855 C.ar    1  UNL1        0.0821
     29 C          65.9856   92.4353   14.8006 C.ar    1  UNL1        0.1468
     30 F          67.0336   93.4549   15.1354 F       1  UNL1       -0.2039
     31 C          65.1023   91.8850   15.8808 C.ar    1  UNL1        0.0607
     32 C          64.0543   90.8653   15.5460 C.ar    1  UNL1        0.1557
     33 F          63.1710   90.3151   16.6262 F       1  UNL1       -0.2028
     34 C          66.7044   92.5162   12.3052 C.2     1  UNL1        0.2480
     35 O          68.1689   92.1921   12.2963 O.2     1  UNL1       -0.2701
     36 N          66.1232   93.3905   11.2339 N.am    1  UNL1       -0.3024
     37 H          65.1619   93.6032   11.2398 H       1  UNL1        0.1497
     38 C          67.0064   93.9408   10.1537 C.3     1  UNL1        0.0720
     39 C          67.4238   95.0798    9.2714 C.3     1  UNL1        0.0213
     40 C          68.1190   93.7550    9.1649 C.3     1  UNL1        0.0213
@<TRIPOS>BOND
     1    21    22    1
     2    22    23    1
     3    22     1    1
     4     1     2   ar
     5     2    10    1
     6    10    11   ar
     7    11    12   ar
     8    12    13   ar
     9    13    15    1
    10    15    17    1
    11    17    18    1
    12    18    19    1
    13    13    14   ar
    14     2     3   ar
    15     3     4   ar
    16     4     5   ar
    17     5     6   ar
    18     6     7   ar
    19     7     8   ar
    20     8    24    1
    21    24    26    1
    22    26    27   ar
    23    27    28   ar
    24    28    34    1
    25    34    35    2
    26    34    36   am
    27    36    38    1
    28    38    39    1
    29    39    40    1
    30    28    29   ar
    31    29    30    1
    32    29    31   ar
    33    31    32   ar
    34    32    33    1
    35     8     9   ar
    36     9     1   ar
    37    14    10   ar
    38     9     4   ar
    39    32    26   ar
    40    40    38    1
    41    15    16    1
    42    19    20    1
    43    24    25    1
    44    36    37    1
@<TRIPOS>MOLECULE
*****
 40 44 0 0 0
SMALL
GASTEIGER

@<TRIPOS>ATOM
      1 C          62.1812   87.8301   11.5775 C.ar    1  UNL1        0.0040
      2 C          62.0050   86.5218   10.8653 C.ar    1  UNL1        0.0719
      3 C          62.7136   85.4636   11.6578 C.ar    1  UNL1        0.1049
      4 N          63.3278   86.1179   12.8598 N.ar    1  UNL1       -0.2242
      5 N          64.1441   85.5708   13.9930 N.ar    1  UNL1       -0.1422
      6 C          64.6314   86.4864   15.0766 C.ar    1  UNL1        0.2211
      7 N          64.3024   87.9490   15.0269 N.ar    1  UNL1       -0.2060
      8 C          63.4861   88.4961   13.8937 C.ar    1  UNL1        0.1515
      9 C          62.9988   87.5805   12.8101 C.ar    1  UNL1        0.1107
     10 C          61.2523   86.3090    9.5854 C.ar    1  UNL1        0.2525
     11 N          59.9830   87.0000    9.1837 N.ar    1  UNL1       -0.1057
     12 N          59.5830   86.4860    7.8325 N.ar    1  UNL1       -0.0923
     13 C          60.6051   85.4773    7.3991 C.ar    1  UNL1        0.3087
     14 O          61.6367   85.3679    8.4825 O.2     1  UNL1       -0.4048
     15 N          60.5969   84.7122    6.1089 N.pl3   1  UNL1       -0.2846
     16 H          59.7419   84.4454    5.7002 H       1  UNL1        0.1512
     17 C          61.8915   84.3536    5.4414 C.3     1  UNL1        0.1228
     18 C          61.8835   83.7079    4.0876 C.3     1  UNL1        0.1584
     19 O          61.0238   84.2692    2.9940 O.3     1  UNL1       -0.3802
     20 H          60.0891   84.1623    3.2304 H       1  UNL1        0.2105
     21 C          60.2748   89.5953   11.5871 C.3     1  UNL1        0.0047
     22 C          61.6358   89.1554   11.1348 C.3     1  UNL1        0.0241
     23 C          62.4511   90.0410   10.2398 C.3     1  UNL1        0.0047
     24 N          63.1571   89.9587   13.8440 N.pl3   1  UNL1       -0.2949
     25 H          62.2329   90.2497   13.6693 H       1  UNL1        0.1537
     26 C          64.2361   90.9779   14.0606 C.ar    1  UNL1        0.0775
     27 C          64.9215   91.6062   12.8834 C.ar    1  UNL1        0.0237
     28 C          66.0005   92.6254   13.0999 C.ar    1  UNL1        0.0821
     29 C          66.3941   93.0164   14.4935 C.ar    1  UNL1        0.1468
     30 F          67.4732   94.0357   14.7100 F       1  UNL1       -0.2039
     31 C          65.7087   92.3883   15.6706 C.ar    1  UNL1        0.0607
     32 C          64.6297   91.3690   15.4542 C.ar    1  UNL1        0.1557
     33 F          63.9443   90.7408   16.6313 F       1  UNL1       -0.2028
     34 C          66.6859   93.2536   11.9228 C.2     1  UNL1        0.2480
     35 O          67.8512   92.5639   11.2775 O.2     1  UNL1       -0.2701
     36 N          66.2061   94.5716   11.3911 N.am    1  UNL1       -0.3024
     37 H          65.4413   95.0243   11.8146 H       1  UNL1        0.1497
     38 C          66.8914   95.1998   10.2140 C.3     1  UNL1        0.0720
     39 C          67.2651   96.4218    9.4283 C.3     1  UNL1        0.0213
     40 C          67.7049   95.0661    8.9609 C.3     1  UNL1        0.0213
@<TRIPOS>BOND
     1    21    22    1
     2    22    23    1
     3    22     1    1
     4     1     2   ar
     5     2    10    1
     6    10    11   ar
     7    11    12   ar
     8    12    13   ar
     9    13    15    1
    10    15    17    1
    11    17    18    1
    12    18    19    1
    13    13    14   ar
    14     2     3   ar
    15     3     4   ar
    16     4     5   ar
    17     5     6   ar
    18     6     7   ar
    19     7     8   ar
    20     8    24    1
    21    24    26    1
    22    26    27   ar
    23    27    28   ar
    24    28    34    1
    25    34    35    2
    26    34    36   am
    27    36    38    1
    28    38    39    1
    29    39    40    1
    30    28    29   ar
    31    29    30    1
    32    29    31   ar
    33    31    32   ar
    34    32    33    1
    35     8     9   ar
    36     9     1   ar
    37    14    10   ar
    38     9     4   ar
    39    32    26   ar
    40    40    38    1
    41    15    16    1
    42    19    20    1
    43    24    25    1
    44    36    37    1
