@<TRIPOS>MOLECULE
*****
 44 49 0 0 0
SMALL
GASTEIGER

@<TRIPOS>ATOM
      1 N          60.2320   88.8193   10.2623 N.am    1  UNL1       -0.2187
      2 C          59.9144   89.8824    9.2527 C.2     1  UNL1        0.3221
      3 O          59.3242   91.2296    9.5469 O.2     1  UNL1       -0.2512
      4 N          60.2908   89.3616    7.8972 N.am    1  UNL1       -0.1907
      5 C          60.8409   87.9768    8.0691 C.2     1  UNL1        0.2529
      6 O          61.3398   87.0838    6.9720 O.2     1  UNL1       -0.2724
      7 C          60.8046   87.6416    9.5308 C.3     1  UNL1        0.1392
      8 C          60.7067   87.4491   11.0151 C.3     1  UNL1        0.0449
      9 C          61.1629   86.1622   11.6362 C.3     1  UNL1        0.0746
     10 N          61.7169   85.0678   10.7729 N.3     1  UNL1       -0.2676
     11 C          61.8147   85.2602    9.2885 C.3     1  UNL1        0.0746
     12 C          61.3586   86.5471    8.6675 C.3     1  UNL1        0.0449
     13 C          61.1038   89.4489   12.6273 C.ar    1  UNL1        0.2582
     14 N          60.8869   89.5465   14.1083 N.ar    1  UNL1       -0.2061
     15 C          59.5811   89.1121   14.7053 C.ar    1  UNL1        0.1228
     16 C          58.4923   88.5801   13.8212 C.ar    1  UNL1        0.1212
     17 N          58.7093   88.4825   12.3403 N.ar    1  UNL1       -0.2227
     18 C          60.0150   88.9169   11.7433 C.ar    1  UNL1        0.1930
     19 C          63.3613   90.7179   12.8350 C.3     1  UNL1        0.2543
     20 O          62.4096   89.8832   12.0303 O.3     1  UNL1       -0.4542
     21 C          60.1430   90.0966    6.5981 C.ar    1  UNL1        0.0622
     22 C          61.3551   90.4128    5.7732 C.ar    1  UNL1        0.0154
     23 C          61.2073   91.1479    4.4740 C.ar    1  UNL1        0.0013
     24 C          59.8473   91.5667    3.9998 C.ar    1  UNL1       -0.0002
     25 C          58.6350   91.2505    4.8248 C.ar    1  UNL1        0.0013
     26 C          58.7829   90.5155    6.1239 C.ar    1  UNL1        0.0154
     27 C          59.6994   92.3018    2.7006 C.ar    1  UNL1       -0.0040
     28 C          58.3539   92.4041    2.0456 C.ar    1  UNL1       -0.0003
     29 C          58.2061   93.1391    0.7464 C.ar    1  UNL1        0.0011
     30 C          59.4039   93.7719    0.1023 C.ar    1  UNL1        0.0137
     31 C          60.7494   93.6696    0.7572 C.ar    1  UNL1       -0.0031
     32 C          60.8973   92.9346    2.0563 C.ar    1  UNL1       -0.0218
     33 C          62.2428   92.8323    2.7113 C.3     1  UNL1        0.0310
     34 C          59.2560   94.5069   -1.1969 C.2     1  UNL1        0.0729
     35 O          59.7976   93.9103   -2.4621 O.co2   1  UNL1       -0.5446
     36 O          58.5666   95.8387   -1.2309 O.co2   1  UNL1       -0.5446
     37 C          62.1730   83.7808   11.3940 C.3     1  UNL1        0.1183
     38 C          62.8769   83.7953   12.7185 C.ar    1  UNL1        0.0712
     39 N          63.7267   84.9699   13.1034 N.ar    1  UNL1       -0.2471
     40 C          64.4306   84.9844   14.4279 C.ar    1  UNL1        0.0985
     41 C          64.2845   83.8244   15.3676 C.ar    1  UNL1        0.0203
     42 C          63.4347   82.6498   14.9827 C.ar    1  UNL1       -0.0015
     43 C          62.7308   82.6353   13.6582 C.ar    1  UNL1       -0.0069
     44 C          61.8810   81.4607   13.2734 C.3     1  UNL1        0.0323
@<TRIPOS>UNITY_ATOM_ATTR
35 1
charge -1
@<TRIPOS>BOND
     1    19    20    1
     2    20    13    1
     3    13    14   ar
     4    14    15   ar
     5    15    16   ar
     6    16    17   ar
     7    17    18   ar
     8    18     1    1
     9     1     2   am
    10     2     3    2
    11     2     4   am
    12     4    21    1
    13    21    22   ar
    14    22    23   ar
    15    23    24   ar
    16    24    27    1
    17    27    28   ar
    18    28    29   ar
    19    29    30   ar
    20    30    34    1
    21    34    35   ar
    22    34    36   ar
    23    30    31   ar
    24    31    32   ar
    25    32    33    1
    26    24    25   ar
    27    25    26   ar
    28     4     5   am
    29     5     6    2
    30     5     7    1
    31     7     8    1
    32     8     9    1
    33     9    10    1
    34    10    37    1
    35    37    38    1
    36    38    39   ar
    37    39    40   ar
    38    40    41   ar
    39    41    42   ar
    40    42    43   ar
    41    43    44    1
    42    10    11    1
    43    11    12    1
    44    18    13   ar
    45     7     1    1
    46    43    38   ar
    47    26    21   ar
    48    12     7    1
    49    32    27   ar
@<TRIPOS>MOLECULE
*****
 44 49 0 0 0
SMALL
GASTEIGER

@<TRIPOS>ATOM
      1 N          61.7434   88.2133   12.0603 N.am    1  UNL1       -0.2187
      2 C          61.5207   86.8632   11.4455 C.2     1  UNL1        0.3221
      3 O          60.4513   86.5113   10.4543 O.2     1  UNL1       -0.2512
      4 N          62.5552   85.9269   11.9961 N.am    1  UNL1       -0.1907
      5 C          63.4172   86.6982   12.9510 C.2     1  UNL1        0.2529
      6 O          64.5773   86.1524   13.7296 O.2     1  UNL1       -0.2724
      7 C          62.9155   88.1113   12.9908 C.3     1  UNL1        0.1392
      8 C          62.3047   89.4798   12.9267 C.3     1  UNL1        0.0449
      9 C          62.8750   90.5950   13.7519 C.3     1  UNL1        0.0746
     10 N          64.0560   90.3417   14.6413 N.3     1  UNL1       -0.2676
     11 C          64.6668   88.9732   14.7054 C.3     1  UNL1        0.0746
     12 C          64.0965   87.8580   13.8802 C.3     1  UNL1        0.0449
     13 C          61.4552   90.4943   10.8504 C.ar    1  UNL1        0.2582
     14 N          60.6476   91.7294   10.5819 N.ar    1  UNL1       -0.2061
     15 C          59.3203   91.9187   11.2547 C.ar    1  UNL1        0.1228
     16 C          58.8008   90.8727   12.1961 C.ar    1  UNL1        0.1212
     17 N          59.6085   89.6377   12.4646 N.ar    1  UNL1       -0.2227
     18 C          60.9357   89.4484   11.7918 C.ar    1  UNL1        0.1930
     19 C          63.6928   91.4792    9.9712 C.3     1  UNL1        0.2543
     20 O          62.7824   90.3050   10.1776 O.3     1  UNL1       -0.4542
     21 C          62.7020   84.4743   11.6520 C.ar    1  UNL1        0.0622
     22 C          63.3075   84.0718   10.3401 C.ar    1  UNL1        0.0154
     23 C          63.4543   82.6192    9.9960 C.ar    1  UNL1        0.0013
     24 C          62.9954   81.5691   10.9639 C.ar    1  UNL1       -0.0002
     25 C          62.3898   81.9716   12.2759 C.ar    1  UNL1        0.0013
     26 C          62.2431   83.4243   12.6199 C.ar    1  UNL1        0.0154
     27 C          63.1422   80.1164   10.6198 C.ar    1  UNL1       -0.0040
     28 C          63.6871   79.7140    9.2816 C.ar    1  UNL1       -0.0003
     29 C          63.8339   78.2614    8.9375 C.ar    1  UNL1        0.0011
     30 C          63.4356   77.2113    9.9318 C.ar    1  UNL1        0.0137
     31 C          62.8907   77.6137   11.2701 C.ar    1  UNL1       -0.0031
     32 C          62.7439   79.0662   11.6142 C.ar    1  UNL1       -0.0218
     33 C          62.1990   79.4687   12.9525 C.3     1  UNL1        0.0310
     34 C          63.5824   75.7586    9.5878 C.2     1  UNL1        0.0729
     35 O          62.4653   74.8017    9.8817 O.co2   1  UNL1       -0.5446
     36 O          64.8462   75.2630    8.9497 O.co2   1  UNL1       -0.5446
     37 C          64.6263   91.4570   15.4665 C.3     1  UNL1        0.1183
     38 C          66.0475   91.8907   15.2616 C.ar    1  UNL1        0.0712
     39 N          66.9550   92.0688   16.4426 N.ar    1  UNL1       -0.2471
     40 C          68.3763   92.5025   16.2376 C.ar    1  UNL1        0.0985
     41 C          68.8899   92.7581   14.8517 C.ar    1  UNL1        0.0203
     42 C          67.9824   92.5801   13.6708 C.ar    1  UNL1       -0.0015
     43 C          66.5612   92.1464   13.8757 C.ar    1  UNL1       -0.0069
     44 C          65.6537   91.9684   12.6947 C.3     1  UNL1        0.0323
@<TRIPOS>UNITY_ATOM_ATTR
35 1
charge -1
@<TRIPOS>BOND
     1    19    20    1
     2    20    13    1
     3    13    14   ar
     4    14    15   ar
     5    15    16   ar
     6    16    17   ar
     7    17    18   ar
     8    18     1    1
     9     1     2   am
    10     2     3    2
    11     2     4   am
    12     4    21    1
    13    21    22   ar
    14    22    23   ar
    15    23    24   ar
    16    24    27    1
    17    27    28   ar
    18    28    29   ar
    19    29    30   ar
    20    30    34    1
    21    34    35   ar
    22    34    36   ar
    23    30    31   ar
    24    31    32   ar
    25    32    33    1
    26    24    25   ar
    27    25    26   ar
    28     4     5   am
    29     5     6    2
    30     5     7    1
    31     7     8    1
    32     8     9    1
    33     9    10    1
    34    10    37    1
    35    37    38    1
    36    38    39   ar
    37    39    40   ar
    38    40    41   ar
    39    41    42   ar
    40    42    43   ar
    41    43    44    1
    42    10    11    1
    43    11    12    1
    44    18    13   ar
    45     7     1    1
    46    43    38   ar
    47    26    21   ar
    48    12     7    1
    49    32    27   ar
@<TRIPOS>MOLECULE
*****
 44 49 0 0 0
SMALL
GASTEIGER

@<TRIPOS>ATOM
      1 N          61.5884   89.1261   10.1858 N.am    1  UNL1       -0.2187
      2 C          61.3229   90.1979    9.1704 C.2     1  UNL1        0.3221
      3 O          61.4315   91.6762    9.3998 O.2     1  UNL1       -0.2512
      4 N          60.9296   89.5316    7.8852 N.am    1  UNL1       -0.1907
      5 C          60.9520   88.0482    8.1064 C.2     1  UNL1        0.2529
      6 O          60.6248   86.9995    7.0851 O.2     1  UNL1       -0.2724
      7 C          61.3592   87.7975    9.5282 C.3     1  UNL1        0.1392
      8 C          61.7755   87.7029   10.9661 C.3     1  UNL1        0.0449
      9 C          61.9269   86.3596   11.6162 C.3     1  UNL1        0.0746
     10 N          61.6620   85.1109   10.8283 N.3     1  UNL1       -0.2676
     11 C          61.2457   85.2056    9.3903 C.3     1  UNL1        0.0746
     12 C          61.0943   86.5489    8.7403 C.3     1  UNL1        0.0449
     13 C          60.9760   89.6016   12.6654 C.ar    1  UNL1        0.2582
     14 N          61.3968   89.8201   14.0885 N.ar    1  UNL1       -0.2061
     15 C          62.8508   89.7817   14.4550 C.ar    1  UNL1        0.1228
     16 C          63.8841   89.5247   13.3983 C.ar    1  UNL1        0.1212
     17 N          63.4632   89.3062   11.9754 N.ar    1  UNL1       -0.2227
     18 C          62.0092   89.3446   11.6089 C.ar    1  UNL1        0.1930
     19 C          58.9347   90.8784   11.6893 C.3     1  UNL1        0.2543
     20 O          59.5219   89.6401   12.2989 O.3     1  UNL1       -0.4542
     21 C          60.5760   90.2267    6.6040 C.ar    1  UNL1        0.0622
     22 C          61.6482   90.5532    5.6072 C.ar    1  UNL1        0.0154
     23 C          61.2945   91.2484    4.3259 C.ar    1  UNL1        0.0013
     24 C          59.8686   91.6171    4.0414 C.ar    1  UNL1       -0.0002
     25 C          58.7963   91.2906    5.0383 C.ar    1  UNL1        0.0013
     26 C          59.1501   90.5955    6.3196 C.ar    1  UNL1        0.0154
     27 C          59.5150   92.3122    2.7601 C.ar    1  UNL1       -0.0040
     28 C          58.1359   92.1725    2.1869 C.ar    1  UNL1       -0.0003
     29 C          57.7822   92.8676    0.9056 C.ar    1  UNL1        0.0011
     30 C          58.8077   93.7026    0.1976 C.ar    1  UNL1        0.0137
     31 C          60.1868   93.8423    0.7709 C.ar    1  UNL1       -0.0031
     32 C          60.5405   93.1472    2.0521 C.ar    1  UNL1       -0.0218
     33 C          61.9195   93.2870    2.6253 C.3     1  UNL1        0.0310
     34 C          58.4541   94.3977   -1.0837 C.2     1  UNL1        0.0729
     35 O          59.4926   94.5772   -2.1510 O.co2   1  UNL1       -0.5446
     36 O          57.0618   94.9135   -1.2976 O.co2   1  UNL1       -0.5446
     37 C          61.8134   83.7676   11.4784 C.3     1  UNL1        0.1183
     38 C          62.6054   83.6324   12.7450 C.ar    1  UNL1        0.0712
     39 N          61.9452   83.8676   14.0712 N.ar    1  UNL1       -0.2471
     40 C          62.7373   83.7323   15.3378 C.ar    1  UNL1        0.0985
     41 C          64.1896   83.3619   15.2783 C.ar    1  UNL1        0.0203
     42 C          64.8498   83.1267   13.9521 C.ar    1  UNL1       -0.0015
     43 C          64.0578   83.2619   12.6855 C.ar    1  UNL1       -0.0069
     44 C          64.7181   83.0267   11.3593 C.3     1  UNL1        0.0323
@<TRIPOS>UNITY_ATOM_ATTR
35 1
charge -1
@<TRIPOS>BOND
     1    19    20    1
     2    20    13    1
     3    13    14   ar
     4    14    15   ar
     5    15    16   ar
     6    16    17   ar
     7    17    18   ar
     8    18     1    1
     9     1     2   am
    10     2     3    2
    11     2     4   am
    12     4    21    1
    13    21    22   ar
    14    22    23   ar
    15    23    24   ar
    16    24    27    1
    17    27    28   ar
    18    28    29   ar
    19    29    30   ar
    20    30    34    1
    21    34    35   ar
    22    34    36   ar
    23    30    31   ar
    24    31    32   ar
    25    32    33    1
    26    24    25   ar
    27    25    26   ar
    28     4     5   am
    29     5     6    2
    30     5     7    1
    31     7     8    1
    32     8     9    1
    33     9    10    1
    34    10    37    1
    35    37    38    1
    36    38    39   ar
    37    39    40   ar
    38    40    41   ar
    39    41    42   ar
    40    42    43   ar
    41    43    44    1
    42    10    11    1
    43    11    12    1
    44    18    13   ar
    45     7     1    1
    46    43    38   ar
    47    26    21   ar
    48    12     7    1
    49    32    27   ar
@<TRIPOS>MOLECULE
*****
 44 49 0 0 0
SMALL
GASTEIGER

@<TRIPOS>ATOM
      1 N          62.6641   89.2319   12.3452 N.am    1  UNL1       -0.2187
      2 C          62.2088   90.1490   11.2488 C.2     1  UNL1        0.3221
      3 O          62.0979   91.6422   11.3376 O.2     1  UNL1       -0.2512
      4 N          61.8841   89.3105   10.0481 N.am    1  UNL1       -0.1907
      5 C          62.1386   87.8753   10.4024 C.2     1  UNL1        0.2529
      6 O          61.9451   86.6958    9.4963 O.2     1  UNL1       -0.2724
      7 C          62.6207   87.8267   11.8221 C.3     1  UNL1        0.1392
      8 C          63.0884   87.9345   13.2432 C.3     1  UNL1        0.0449
      9 C          63.4615   86.6980   14.0058 C.3     1  UNL1        0.0746
     10 N          63.3668   85.3535   13.3473 N.3     1  UNL1       -0.2676
     11 C          62.8991   85.2457   11.9262 C.3     1  UNL1        0.0746
     12 C          62.5260   86.4823   11.1636 C.3     1  UNL1        0.0449
     13 C          64.3097   90.4981   13.9068 C.ar    1  UNL1        0.2582
     14 N          64.7338   90.9133   15.2843 N.ar    1  UNL1       -0.2061
     15 C          63.9364   90.4777   16.4778 C.ar    1  UNL1        0.1228
     16 C          62.7149   89.6268   16.2937 C.ar    1  UNL1        0.1212
     17 N          62.2908   89.2116   14.9162 N.ar    1  UNL1       -0.2227
     18 C          63.0882   89.6472   13.7227 C.ar    1  UNL1        0.1930
     19 C          65.3531   92.3928   12.4677 C.3     1  UNL1        0.2543
     20 O          65.1071   90.9336   12.7133 O.3     1  UNL1       -0.4542
     21 C          61.3914   89.8180    8.7255 C.ar    1  UNL1        0.0622
     22 C          60.1110   89.2903    8.1494 C.ar    1  UNL1        0.0154
     23 C          59.6183   89.7979    6.8267 C.ar    1  UNL1        0.0013
     24 C          60.4060   90.8333    6.0800 C.ar    1  UNL1       -0.0002
     25 C          61.6865   91.3611    6.6561 C.ar    1  UNL1        0.0013
     26 C          62.1791   90.8534    7.9788 C.ar    1  UNL1        0.0154
     27 C          59.9133   91.3409    4.7573 C.ar    1  UNL1       -0.0040
     28 C          58.4528   91.6185    4.5573 C.ar    1  UNL1       -0.0003
     29 C          57.9601   92.1261    3.2346 C.ar    1  UNL1        0.0011
     30 C          58.9279   92.3561    2.1119 C.ar    1  UNL1        0.0137
     31 C          60.3884   92.0784    2.3119 C.ar    1  UNL1       -0.0031
     32 C          60.8811   91.5708    3.6345 C.ar    1  UNL1       -0.0218
     33 C          62.3415   91.2932    3.8345 C.3     1  UNL1        0.0310
     34 C          58.4352   92.8637    0.7892 C.2     1  UNL1        0.0729
     35 O          57.4854   92.0362   -0.0251 O.co2   1  UNL1       -0.5446
     36 O          58.8924   94.1989    0.2807 O.co2   1  UNL1       -0.5446
     37 C          63.7400   84.1169   14.1100 C.3     1  UNL1        0.1183
     38 C          63.0758   82.8103   13.7914 C.ar    1  UNL1        0.0712
     39 N          61.9102   82.3419   14.6112 N.ar    1  UNL1       -0.2471
     40 C          61.2460   81.0352   14.2926 C.ar    1  UNL1        0.0985
     41 C          61.7473   80.1970   13.1543 C.ar    1  UNL1        0.0203
     42 C          62.9129   80.6653   12.3345 C.ar    1  UNL1       -0.0015
     43 C          63.5771   81.9719   12.6530 C.ar    1  UNL1       -0.0069
     44 C          64.7427   82.4403   11.8332 C.3     1  UNL1        0.0323
@<TRIPOS>UNITY_ATOM_ATTR
35 1
charge -1
@<TRIPOS>BOND
     1    19    20    1
     2    20    13    1
     3    13    14   ar
     4    14    15   ar
     5    15    16   ar
     6    16    17   ar
     7    17    18   ar
     8    18     1    1
     9     1     2   am
    10     2     3    2
    11     2     4   am
    12     4    21    1
    13    21    22   ar
    14    22    23   ar
    15    23    24   ar
    16    24    27    1
    17    27    28   ar
    18    28    29   ar
    19    29    30   ar
    20    30    34    1
    21    34    35   ar
    22    34    36   ar
    23    30    31   ar
    24    31    32   ar
    25    32    33    1
    26    24    25   ar
    27    25    26   ar
    28     4     5   am
    29     5     6    2
    30     5     7    1
    31     7     8    1
    32     8     9    1
    33     9    10    1
    34    10    37    1
    35    37    38    1
    36    38    39   ar
    37    39    40   ar
    38    40    41   ar
    39    41    42   ar
    40    42    43   ar
    41    43    44    1
    42    10    11    1
    43    11    12    1
    44    18    13   ar
    45     7     1    1
    46    43    38   ar
    47    26    21   ar
    48    12     7    1
    49    32    27   ar
@<TRIPOS>MOLECULE
*****
 44 49 0 0 0
SMALL
GASTEIGER

@<TRIPOS>ATOM
      1 N          62.2087   88.5877   11.5409 N.am    1  UNL1       -0.2187
      2 C          61.8152   89.6142   10.5202 C.2     1  UNL1        0.3221
      3 O          61.7813   91.0989   10.7307 O.2     1  UNL1       -0.2512
      4 N          61.4617   88.8951    9.2521 N.am    1  UNL1       -0.1907
      5 C          61.6367   87.4243    9.4891 C.2     1  UNL1        0.2529
      6 O          61.3928   86.3347    8.4874 O.2     1  UNL1       -0.2724
      7 C          62.0983   87.2343   10.9036 C.3     1  UNL1        0.1392
      8 C          62.5539   87.2006   12.3323 C.3     1  UNL1        0.0449
      9 C          62.8527   85.8877   12.9934 C.3     1  UNL1        0.0746
     10 N          62.6959   84.6086   12.2258 N.3     1  UNL1       -0.2676
     11 C          62.2404   84.6423   10.7971 C.3     1  UNL1        0.0746
     12 C          61.9416   85.9551   10.1360 C.3     1  UNL1        0.0449
     13 C          61.6717   89.4797   13.9212 C.ar    1  UNL1        0.2582
     14 N          62.1003   89.7579   15.3315 N.ar    1  UNL1       -0.2061
     15 C          63.4944   89.4222   15.7718 C.ar    1  UNL1        0.1228
     16 C          64.4599   88.8083   14.8017 C.ar    1  UNL1        0.1212
     17 N          64.0313   88.5301   13.3915 N.ar    1  UNL1       -0.2227
     18 C          62.6372   88.8659   12.9512 C.ar    1  UNL1        0.1930
     19 C          59.2110   88.7610   13.4994 C.3     1  UNL1        0.2543
     20 O          60.2777   89.8155   13.4809 O.3     1  UNL1       -0.4542
     21 C          61.0122   89.5345    7.9720 C.ar    1  UNL1        0.0622
     22 C          59.6964   89.1499    7.3631 C.ar    1  UNL1        0.0154
     23 C          59.2468   89.7894    6.0829 C.ar    1  UNL1        0.0013
     24 C          60.1131   90.8135    5.4115 C.ar    1  UNL1       -0.0002
     25 C          61.4290   91.1981    6.0203 C.ar    1  UNL1        0.0013
     26 C          61.8784   90.5586    7.3005 C.ar    1  UNL1        0.0154
     27 C          59.6636   91.4529    4.1312 C.ar    1  UNL1       -0.0040
     28 C          60.6689   91.8038    3.0747 C.ar    1  UNL1       -0.0003
     29 C          60.2193   92.4432    1.7945 C.ar    1  UNL1        0.0011
     30 C          58.7644   92.7319    1.5709 C.ar    1  UNL1        0.0137
     31 C          57.7591   92.3811    2.6274 C.ar    1  UNL1       -0.0031
     32 C          58.2086   91.7416    3.9075 C.ar    1  UNL1       -0.0218
     33 C          57.2033   91.3908    4.9641 C.3     1  UNL1        0.0310
     34 C          58.3149   93.3713    0.2906 C.2     1  UNL1        0.0729
     35 O          57.2407   92.7256   -0.5335 O.co2   1  UNL1       -0.5446
     36 O          58.9395   94.6567   -0.1655 O.co2   1  UNL1       -0.5446
     37 C          62.9948   83.2957   12.8870 C.3     1  UNL1        0.1183
     38 C          62.9632   82.0281   12.0857 C.ar    1  UNL1        0.0712
     39 N          63.4956   82.0137   10.6835 N.ar    1  UNL1       -0.2471
     40 C          63.4640   80.7460    9.8822 C.ar    1  UNL1        0.0985
     41 C          62.9000   79.4927   10.4832 C.ar    1  UNL1        0.0203
     42 C          62.3676   79.5071   11.8855 C.ar    1  UNL1       -0.0015
     43 C          62.3992   80.7747   12.6867 C.ar    1  UNL1       -0.0069
     44 C          61.8668   80.7891   14.0890 C.3     1  UNL1        0.0323
@<TRIPOS>UNITY_ATOM_ATTR
35 1
charge -1
@<TRIPOS>BOND
     1    19    20    1
     2    20    13    1
     3    13    14   ar
     4    14    15   ar
     5    15    16   ar
     6    16    17   ar
     7    17    18   ar
     8    18     1    1
     9     1     2   am
    10     2     3    2
    11     2     4   am
    12     4    21    1
    13    21    22   ar
    14    22    23   ar
    15    23    24   ar
    16    24    27    1
    17    27    28   ar
    18    28    29   ar
    19    29    30   ar
    20    30    34    1
    21    34    35   ar
    22    34    36   ar
    23    30    31   ar
    24    31    32   ar
    25    32    33    1
    26    24    25   ar
    27    25    26   ar
    28     4     5   am
    29     5     6    2
    30     5     7    1
    31     7     8    1
    32     8     9    1
    33     9    10    1
    34    10    37    1
    35    37    38    1
    36    38    39   ar
    37    39    40   ar
    38    40    41   ar
    39    41    42   ar
    40    42    43   ar
    41    43    44    1
    42    10    11    1
    43    11    12    1
    44    18    13   ar
    45     7     1    1
    46    43    38   ar
    47    26    21   ar
    48    12     7    1
    49    32    27   ar
