@<TRIPOS>MOLECULE
*****
 29 31 0 0 0
SMALL
GASTEIGER

@<TRIPOS>ATOM
      1 C          63.2718   87.0933   12.7823 C.3     1  UNL1        0.2420
      2 C          63.2334   88.5660   12.5000 C.2     1  UNL1        0.2611
      3 O          64.0573   89.4253   13.4125 O.2     1  UNL1       -0.2718
      4 N          62.4801   89.2929   11.4257 N.am    1  UNL1       -0.2546
      5 C          61.5792   88.7268   10.3684 C.ar    1  UNL1        0.0596
      6 C          61.0220   89.8058    9.4879 C.ar    1  UNL1        0.0154
      7 C          60.0946   89.4518    8.3634 C.ar    1  UNL1        0.0013
      8 C          59.7244   88.0189    8.1194 C.ar    1  UNL1        0.0006
      9 C          60.2815   86.9399    8.9998 C.ar    1  UNL1        0.0074
     10 C          61.2089   87.2938   10.1244 C.ar    1  UNL1        0.0393
     11 S          61.6483   86.0732   10.8773 S.3     1  UNL1       -0.1057
     12 C          62.5663   85.9838   12.0602 C.3     1  UNL1        0.1135
     13 C          62.8113   84.6026   12.5912 C.ar    1  UNL1       -0.0090
     14 C          63.6945   83.6544   11.8357 C.ar    1  UNL1       -0.0002
     15 C          63.9395   82.2730   12.3666 C.ar    1  UNL1        0.0366
     16 C          63.3012   81.8399   13.6531 C.ar    1  UNL1        0.1387
     17 C          62.4179   82.7881   14.4086 C.ar    1  UNL1        0.0366
     18 C          62.1729   84.1694   13.8777 C.ar    1  UNL1       -0.0002
     19 O          63.5462   80.4586   14.1841 O.3     1  UNL1       -0.4714
     20 C          62.6165   79.3391   13.8196 C.3     1  UNL1        0.2525
     21 O          64.1289   86.6747   13.9400 O.3     1  UNL1       -0.2124
     22 O          63.7481   87.0687   15.3362 O.3     1  UNL1       -0.2200
     23 C          62.7084   86.2885   17.5858 C.3     1  UNL1        0.0382
     24 C          63.5743   86.0168   16.3914 C.3     1  UNL1        0.1822
     25 C          62.6504   90.7831   11.4060 C.3     1  UNL1        0.1156
     26 C          63.7298   91.4037   10.5694 C.3     1  UNL1        0.0943
     27 N          64.8339   92.1793   11.2247 N.3     1  UNL1       -0.2688
     28 C          65.7826   92.9857   10.3883 C.3     1  UNL1        0.0897
     29 C          64.9893   92.1485   12.7163 C.3     1  UNL1        0.0897
@<TRIPOS>BOND
     1    23    24    1
     2    24    22    1
     3    22    21    1
     4     1    21    1
     5     1     2    1
     6     2     3    2
     7     2     4   am
     8     4    25    1
     9    25    26    1
    10    26    27    1
    11    27    28    1
    12    27    29    1
    13     4     5    1
    14     5     6   ar
    15     6     7   ar
    16     7     8   ar
    17     8     9   ar
    18     9    10   ar
    19    10    11    1
    20    11    12    1
    21    12    13    1
    22    13    14   ar
    23    14    15   ar
    24    15    16   ar
    25    16    19    1
    26    19    20    1
    27    16    17   ar
    28    17    18   ar
    29    12     1    1
    30    18    13   ar
    31    10     5   ar
@<TRIPOS>MOLECULE
*****
 29 31 0 0 0
SMALL
GASTEIGER

@<TRIPOS>ATOM
      1 C          63.9266   87.0944   13.8231 C.3     1  UNL1        0.2420
      2 C          64.0317   88.5897   13.7682 C.2     1  UNL1        0.2611
      3 O          64.8720   89.2228   14.8374 O.2     1  UNL1       -0.2718
      4 N          63.4076   89.5356   12.7855 N.am    1  UNL1       -0.2546
      5 C          62.5242   89.2199   11.6150 C.ar    1  UNL1        0.0596
      6 C          62.1142   90.4652   10.8862 C.ar    1  UNL1        0.0154
      7 C          61.2268   90.3708    9.6806 C.ar    1  UNL1        0.0013
      8 C          60.7494   89.0311    9.2038 C.ar    1  UNL1        0.0006
      9 C          61.1594   87.7858    9.9325 C.ar    1  UNL1        0.0074
     10 C          62.0469   87.8802   11.1381 C.ar    1  UNL1        0.0393
     11 S          62.3350   86.5254   11.7140 S.3     1  UNL1       -0.1057
     12 C          63.1715   86.1757   12.9089 C.3     1  UNL1        0.1135
     13 C          63.2654   84.7140   13.2324 C.ar    1  UNL1       -0.0090
     14 C          62.2779   84.0891   14.1729 C.ar    1  UNL1       -0.0002
     15 C          62.3717   82.6274   14.4964 C.ar    1  UNL1        0.0366
     16 C          63.4531   81.7906   13.8794 C.ar    1  UNL1        0.1387
     17 C          64.4405   82.4155   12.9390 C.ar    1  UNL1        0.0366
     18 C          64.3467   83.8772   12.6154 C.ar    1  UNL1       -0.0002
     19 O          63.5469   80.3290   14.2029 O.3     1  UNL1       -0.4714
     20 C          62.5234   79.3742   13.6635 C.3     1  UNL1        0.2525
     21 O          64.6757   86.4299   14.9400 O.3     1  UNL1       -0.2124
     22 O          63.9265   85.8263   16.0907 O.3     1  UNL1       -0.2200
     23 C          63.0566   87.9725   17.2685 C.3     1  UNL1        0.0382
     24 C          62.8116   86.5892   16.7426 C.3     1  UNL1        0.1822
     25 C          63.7063   90.9896   13.0019 C.3     1  UNL1        0.1156
     26 C          64.8917   91.6194   12.3324 C.3     1  UNL1        0.0943
     27 N          65.6940   92.6619   13.0533 N.3     1  UNL1       -0.2688
     28 C          65.9888   92.5029   14.5154 C.3     1  UNL1        0.0897
     29 C          66.2014   93.8632   12.3120 C.3     1  UNL1        0.0897
@<TRIPOS>BOND
     1    23    24    1
     2    24    22    1
     3    22    21    1
     4     1    21    1
     5     1     2    1
     6     2     3    2
     7     2     4   am
     8     4    25    1
     9    25    26    1
    10    26    27    1
    11    27    28    1
    12    27    29    1
    13     4     5    1
    14     5     6   ar
    15     6     7   ar
    16     7     8   ar
    17     8     9   ar
    18     9    10   ar
    19    10    11    1
    20    11    12    1
    21    12    13    1
    22    13    14   ar
    23    14    15   ar
    24    15    16   ar
    25    16    19    1
    26    19    20    1
    27    16    17   ar
    28    17    18   ar
    29    12     1    1
    30    18    13   ar
    31    10     5   ar
@<TRIPOS>MOLECULE
*****
 29 31 0 0 0
SMALL
GASTEIGER

@<TRIPOS>ATOM
      1 C          63.8161   87.9401   13.4994 C.3     1  UNL1        0.2420
      2 C          63.1901   86.7261   12.8796 C.2     1  UNL1        0.2611
      3 O          63.5354   85.4156   13.5225 O.2     1  UNL1       -0.2718
      4 N          62.2644   86.6493   11.7017 N.am    1  UNL1       -0.2546
      5 C          61.7361   87.7676   10.8529 C.ar    1  UNL1        0.0596
      6 C          60.8332   87.2545    9.7706 C.ar    1  UNL1        0.0154
      7 C          60.1972   88.2127    8.8076 C.ar    1  UNL1        0.0013
      8 C          60.4641   89.6839    8.9270 C.ar    1  UNL1        0.0006
      9 C          61.3670   90.1970   10.0093 C.ar    1  UNL1        0.0074
     10 C          62.0031   89.2388   10.9723 C.ar    1  UNL1        0.0393
     11 S          62.8642   89.9551   11.9700 S.3     1  UNL1       -0.1057
     12 C          63.6711   89.3772   13.0947 C.3     1  UNL1        0.1135
     13 C          64.4338   90.3672   13.9242 C.ar    1  UNL1       -0.0090
     14 C          63.9462   90.7299   15.2956 C.ar    1  UNL1       -0.0002
     15 C          64.7089   91.7200   16.1252 C.ar    1  UNL1        0.0366
     16 C          65.9592   92.3472   15.5834 C.ar    1  UNL1        0.1387
     17 C          66.4467   91.9844   14.2120 C.ar    1  UNL1        0.0366
     18 C          65.6840   90.9944   13.3824 C.ar    1  UNL1       -0.0002
     19 O          66.7218   93.3371   16.4129 O.3     1  UNL1       -0.4714
     20 C          68.1325   93.6931   16.0475 C.3     1  UNL1        0.2525
     21 O          64.7047   87.6831   14.6803 O.3     1  UNL1       -0.2124
     22 O          64.1990   86.8733   15.8372 O.3     1  UNL1       -0.2200
     23 C          62.6930   86.6579   17.9433 C.3     1  UNL1        0.0382
     24 C          63.1478   87.4385   16.7458 C.3     1  UNL1        0.1822
     25 C          61.8065   85.2722   11.3226 C.3     1  UNL1        0.1156
     26 C          62.6782   84.4008   10.4676 C.3     1  UNL1        0.0943
     27 N          63.2893   83.1572   11.0423 N.3     1  UNL1       -0.2688
     28 C          64.6373   82.6976   10.5716 C.3     1  UNL1        0.0897
     29 C          62.5523   82.3734   12.0875 C.3     1  UNL1        0.0897
@<TRIPOS>BOND
     1    23    24    1
     2    24    22    1
     3    22    21    1
     4     1    21    1
     5     1     2    1
     6     2     3    2
     7     2     4   am
     8     4    25    1
     9    25    26    1
    10    26    27    1
    11    27    28    1
    12    27    29    1
    13     4     5    1
    14     5     6   ar
    15     6     7   ar
    16     7     8   ar
    17     8     9   ar
    18     9    10   ar
    19    10    11    1
    20    11    12    1
    21    12    13    1
    22    13    14   ar
    23    14    15   ar
    24    15    16   ar
    25    16    19    1
    26    19    20    1
    27    16    17   ar
    28    17    18   ar
    29    12     1    1
    30    18    13   ar
    31    10     5   ar
@<TRIPOS>MOLECULE
*****
 29 31 0 0 0
SMALL
GASTEIGER

@<TRIPOS>ATOM
      1 C          63.6016   90.1036   12.9163 C.3     1  UNL1        0.2420
      2 C          64.5011   90.7925   13.8994 C.2     1  UNL1        0.2611
      3 O          64.5804   90.1652   15.2595 O.2     1  UNL1       -0.2718
      4 N          65.3317   92.0258   13.7019 N.am    1  UNL1       -0.2546
      5 C          65.4680   92.8749   12.4729 C.ar    1  UNL1        0.0596
      6 C          66.4056   94.0232   12.7013 C.ar    1  UNL1        0.0154
      7 C          66.6825   94.9969   11.5944 C.ar    1  UNL1        0.0013
      8 C          66.0218   94.8223   10.2591 C.ar    1  UNL1        0.0006
      9 C          65.0842   93.6740   10.0307 C.ar    1  UNL1        0.0074
     10 C          64.8073   92.7003   11.1376 C.ar    1  UNL1        0.0393
     11 S          63.8471   91.6335   10.7016 S.3     1  UNL1       -0.1057
     12 C          63.3105   90.4778   11.4932 C.3     1  UNL1        0.1135
     13 C          62.3568   89.5775   10.7655 C.ar    1  UNL1       -0.0090
     14 C          62.8103   88.2269   10.2962 C.ar    1  UNL1       -0.0002
     15 C          61.8566   87.3264    9.5684 C.ar    1  UNL1        0.0366
     16 C          60.4492   87.7767    9.3100 C.ar    1  UNL1        0.1387
     17 C          59.9957   89.1272    9.7793 C.ar    1  UNL1        0.0366
     18 C          60.9494   90.0277   10.5070 C.ar    1  UNL1       -0.0002
     19 O          59.4955   86.8763    8.5823 O.3     1  UNL1       -0.4714
     20 C          60.0072   85.9284    7.5383 C.3     1  UNL1        0.2525
     21 O          62.9003   88.8784   13.4235 O.3     1  UNL1       -0.2124
     22 O          63.6181   87.5617   13.4530 O.3     1  UNL1       -0.2200
     23 C          64.7150   85.6834   14.8739 C.3     1  UNL1        0.0382
     24 C          64.3276   87.1220   14.6993 C.3     1  UNL1        0.1822
     25 C          66.1319   92.4687   14.8909 C.3     1  UNL1        0.1156
     26 C          67.4595   91.8332   15.1803 C.3     1  UNL1        0.0943
     27 N          68.7268   92.5939   14.9247 N.3     1  UNL1       -0.2688
     28 C          69.0957   93.7530   15.8025 C.3     1  UNL1        0.0897
     29 C          69.6251   92.1955   13.7914 C.3     1  UNL1        0.0897
@<TRIPOS>BOND
     1    23    24    1
     2    24    22    1
     3    22    21    1
     4     1    21    1
     5     1     2    1
     6     2     3    2
     7     2     4   am
     8     4    25    1
     9    25    26    1
    10    26    27    1
    11    27    28    1
    12    27    29    1
    13     4     5    1
    14     5     6   ar
    15     6     7   ar
    16     7     8   ar
    17     8     9   ar
    18     9    10   ar
    19    10    11    1
    20    11    12    1
    21    12    13    1
    22    13    14   ar
    23    14    15   ar
    24    15    16   ar
    25    16    19    1
    26    19    20    1
    27    16    17   ar
    28    17    18   ar
    29    12     1    1
    30    18    13   ar
    31    10     5   ar
@<TRIPOS>MOLECULE
*****
 29 31 0 0 0
SMALL
GASTEIGER

@<TRIPOS>ATOM
      1 C          63.2934   89.5000   12.3575 C.3     1  UNL1        0.2420
      2 C          62.4826   88.6416   11.4323 C.2     1  UNL1        0.2611
      3 O          61.7876   89.3635   10.3163 O.2     1  UNL1       -0.2718
      4 N          62.2750   87.1567   11.4759 N.am    1  UNL1       -0.2546
      5 C          62.8267   86.1634   12.4552 C.ar    1  UNL1        0.0596
      6 C          62.3714   84.7699   12.1377 C.ar    1  UNL1        0.0154
      7 C          62.8119   83.6228   12.9980 C.ar    1  UNL1        0.0013
      8 C          63.7077   83.8691   14.1756 C.ar    1  UNL1        0.0006
      9 C          64.1630   85.2626   14.4931 C.ar    1  UNL1        0.0074
     10 C          63.7225   86.4098   13.6328 C.ar    1  UNL1        0.0393
     11 S          64.2877   87.7103   14.1220 S.3     1  UNL1       -0.1057
     12 C          64.0968   89.0856   13.5545 C.3     1  UNL1        0.1135
     13 C          64.8024   90.1927   14.2798 C.ar    1  UNL1       -0.0090
     14 C          64.1469   90.8575   15.4538 C.ar    1  UNL1       -0.0002
     15 C          64.8525   91.9647   16.1792 C.ar    1  UNL1        0.0366
     16 C          66.2138   92.4071   15.7305 C.ar    1  UNL1        0.1387
     17 C          66.8694   91.7424   14.5565 C.ar    1  UNL1        0.0366
     18 C          66.1637   90.6351   13.8311 C.ar    1  UNL1       -0.0002
     19 O          66.9195   93.5143   16.4558 O.3     1  UNL1       -0.4714
     20 C          68.3152   93.8985   16.0625 C.3     1  UNL1        0.2525
     21 O          63.3020   90.9669   12.0441 O.3     1  UNL1       -0.2124
     22 O          64.1379   91.4872   10.9125 O.3     1  UNL1       -0.2200
     23 C          66.4617   92.6065   10.6008 C.3     1  UNL1        0.0382
     24 C          65.0603   92.6491   11.1341 C.3     1  UNL1        0.1822
     25 C          61.3997   86.5901   10.3975 C.3     1  UNL1        0.1156
     26 C          61.9631   86.3354    9.0308 C.3     1  UNL1        0.0943
     27 N          61.0543   85.9294    7.9086 N.3     1  UNL1       -0.2688
     28 C          61.5455   84.9884    6.8488 C.3     1  UNL1        0.0897
     29 C          59.6544   86.4646    7.8463 C.3     1  UNL1        0.0897
@<TRIPOS>BOND
     1    23    24    1
     2    24    22    1
     3    22    21    1
     4     1    21    1
     5     1     2    1
     6     2     3    2
     7     2     4   am
     8     4    25    1
     9    25    26    1
    10    26    27    1
    11    27    28    1
    12    27    29    1
    13     4     5    1
    14     5     6   ar
    15     6     7   ar
    16     7     8   ar
    17     8     9   ar
    18     9    10   ar
    19    10    11    1
    20    11    12    1
    21    12    13    1
    22    13    14   ar
    23    14    15   ar
    24    15    16   ar
    25    16    19    1
    26    19    20    1
    27    16    17   ar
    28    17    18   ar
    29    12     1    1
    30    18    13   ar
    31    10     5   ar
@<TRIPOS>MOLECULE
*****
 29 31 0 0 0
SMALL
GASTEIGER

@<TRIPOS>ATOM
      1 C          62.5487   87.5778   11.9004 C.3     1  UNL1        0.2420
      2 C          63.4021   87.2785   13.0971 C.2     1  UNL1        0.2611
      3 O          63.8217   88.4666   13.9108 O.2     1  UNL1       -0.2718
      4 N          63.8913   85.9481   13.5876 N.am    1  UNL1       -0.2546
      5 C          63.6480   84.5884   13.0026 C.ar    1  UNL1        0.0596
      6 C          64.3223   83.5170   13.8072 C.ar    1  UNL1        0.0154
      7 C          64.2039   82.0806   13.3918 C.ar    1  UNL1        0.0013
      8 C          63.4112   81.7155   12.1718 C.ar    1  UNL1        0.0006
      9 C          62.7370   82.7869   11.3672 C.ar    1  UNL1        0.0074
     10 C          62.8554   84.2234   11.7826 C.ar    1  UNL1        0.0393
     11 S          62.1103   85.1279   10.8463 S.3     1  UNL1       -0.1057
     12 C          61.9737   86.6207   10.8986 C.3     1  UNL1        0.1135
     13 C          61.1540   87.2381    9.8047 C.ar    1  UNL1       -0.0090
     14 C          60.1927   86.3947    9.0207 C.ar    1  UNL1       -0.0002
     15 C          59.3728   87.0121    7.9268 C.ar    1  UNL1        0.0366
     16 C          59.5144   88.4729    7.6167 C.ar    1  UNL1        0.1387
     17 C          60.4757   89.3163    8.4007 C.ar    1  UNL1        0.0366
     18 C          61.2955   88.6989    9.4947 C.ar    1  UNL1       -0.0002
     19 O          58.6946   89.0903    6.5228 O.3     1  UNL1       -0.4714
     20 C          59.2132   90.2863    5.7807 C.3     1  UNL1        0.2525
     21 O          62.2277   89.0258   11.6757 O.3     1  UNL1       -0.2124
     22 O          61.2759   89.7342   12.5933 O.3     1  UNL1       -0.2200
     23 C          59.1218   90.7637   11.5685 C.3     1  UNL1        0.0382
     24 C          59.7992   89.6687   12.3381 C.3     1  UNL1        0.1822
     25 C          64.7355   85.9817   14.8271 C.3     1  UNL1        0.1156
     26 C          64.1212   85.6776   16.1614 C.3     1  UNL1        0.0943
     27 N          62.8894   86.4099   16.6043 N.3     1  UNL1       -0.2688
     28 C          61.5453   85.7539   16.4906 C.3     1  UNL1        0.0897
     29 C          63.0017   87.7983   17.1610 C.3     1  UNL1        0.0897
@<TRIPOS>BOND
     1    23    24    1
     2    24    22    1
     3    22    21    1
     4     1    21    1
     5     1     2    1
     6     2     3    2
     7     2     4   am
     8     4    25    1
     9    25    26    1
    10    26    27    1
    11    27    28    1
    12    27    29    1
    13     4     5    1
    14     5     6   ar
    15     6     7   ar
    16     7     8   ar
    17     8     9   ar
    18     9    10   ar
    19    10    11    1
    20    11    12    1
    21    12    13    1
    22    13    14   ar
    23    14    15   ar
    24    15    16   ar
    25    16    19    1
    26    19    20    1
    27    16    17   ar
    28    17    18   ar
    29    12     1    1
    30    18    13   ar
    31    10     5   ar
@<TRIPOS>MOLECULE
*****
 29 31 0 0 0
SMALL
GASTEIGER

@<TRIPOS>ATOM
      1 C          63.9363   90.4645   12.3919 C.3     1  UNL1        0.2420
      2 C          63.0466   89.7299   11.4334 C.2     1  UNL1        0.2611
      3 O          62.5108   90.5406   10.2908 O.2     1  UNL1       -0.2718
      4 N          62.6220   88.2916   11.4665 N.am    1  UNL1       -0.2546
      5 C          62.9820   87.2328   12.4661 C.ar    1  UNL1        0.0596
      6 C          62.3406   85.9196   12.1285 C.ar    1  UNL1        0.0154
      7 C          62.5730   84.7243   13.0045 C.ar    1  UNL1        0.0013
      8 C          63.4467   84.8423   14.2181 C.ar    1  UNL1        0.0006
      9 C          64.0880   86.1555   14.5557 C.ar    1  UNL1        0.0074
     10 C          63.8557   87.3508   13.6797 C.ar    1  UNL1        0.0393
     11 S          64.5851   88.5567   14.1933 S.3     1  UNL1       -0.1057
     12 C          64.6210   89.9425   13.6202 C.3     1  UNL1        0.1135
     13 C          65.4513   90.9377   14.3752 C.ar    1  UNL1       -0.0090
     14 C          64.8842   91.6264   15.5810 C.ar    1  UNL1       -0.0002
     15 C          65.7145   92.6217   16.3361 C.ar    1  UNL1        0.0366
     16 C          67.1120   92.9282   15.8852 C.ar    1  UNL1        0.1387
     17 C          67.6790   92.2395   14.6793 C.ar    1  UNL1        0.0366
     18 C          66.8487   91.2442   13.9243 C.ar    1  UNL1       -0.0002
     19 O          67.9423   93.9234   16.6401 O.3     1  UNL1       -0.4714
     20 C          69.3245   94.2611   16.1651 C.3     1  UNL1        0.2525
     21 O          64.1724   91.9128   12.0811 O.3     1  UNL1       -0.2124
     22 O          64.9480   92.3004   10.8571 O.3     1  UNL1       -0.2200
     23 C          66.1460   94.2796   12.0395 C.3     1  UNL1        0.0382
     24 C          66.1257   93.2219   10.9760 C.3     1  UNL1        0.1822
     25 C          61.7176   87.8543   10.3525 C.3     1  UNL1        0.1156
     26 C          60.2290   87.9307   10.5210 C.3     1  UNL1        0.0943
     27 N          59.6205   89.0487   11.3147 N.3     1  UNL1       -0.2688
     28 C          59.5903   90.4385   10.7512 C.3     1  UNL1        0.0897
     29 C          59.0422   88.7767   12.6718 C.3     1  UNL1        0.0897
@<TRIPOS>BOND
     1    23    24    1
     2    24    22    1
     3    22    21    1
     4     1    21    1
     5     1     2    1
     6     2     3    2
     7     2     4   am
     8     4    25    1
     9    25    26    1
    10    26    27    1
    11    27    28    1
    12    27    29    1
    13     4     5    1
    14     5     6   ar
    15     6     7   ar
    16     7     8   ar
    17     8     9   ar
    18     9    10   ar
    19    10    11    1
    20    11    12    1
    21    12    13    1
    22    13    14   ar
    23    14    15   ar
    24    15    16   ar
    25    16    19    1
    26    19    20    1
    27    16    17   ar
    28    17    18   ar
    29    12     1    1
    30    18    13   ar
    31    10     5   ar
@<TRIPOS>MOLECULE
*****
 29 31 0 0 0
SMALL
GASTEIGER

@<TRIPOS>ATOM
      1 C          63.5210   88.7804   12.2190 C.3     1  UNL1        0.2420
      2 C          62.8852   87.4221   12.1906 C.2     1  UNL1        0.2611
      3 O          63.3661   86.4564   13.2328 O.2     1  UNL1       -0.2718
      4 N          61.8321   86.9018   11.2578 N.am    1  UNL1       -0.2546
      5 C          61.1546   87.6112   10.1230 C.ar    1  UNL1        0.0596
      6 C          60.1561   86.7243    9.4402 C.ar    1  UNL1        0.0154
      7 C          59.3660   87.2423    8.2751 C.ar    1  UNL1        0.0013
      8 C          59.5744   88.6473    7.7929 C.ar    1  UNL1        0.0006
      9 C          60.5729   89.5342    8.4757 C.ar    1  UNL1        0.0074
     10 C          61.3630   89.0162    9.6407 C.ar    1  UNL1        0.0393
     11 S          62.3004   90.0587   10.1742 S.3     1  UNL1       -0.1057
     12 C          63.2608   89.9539   11.3216 C.3     1  UNL1        0.1135
     13 C          64.0675   91.1851   11.6098 C.ar    1  UNL1       -0.0090
     14 C          64.3823   92.1508   10.5060 C.ar    1  UNL1       -0.0002
     15 C          65.1891   93.3822   10.7941 C.ar    1  UNL1        0.0366
     16 C          65.6811   93.6477   12.1861 C.ar    1  UNL1        0.1387
     17 C          65.3664   92.6819   13.2898 C.ar    1  UNL1        0.0366
     18 C          64.5596   91.4506   13.0017 C.ar    1  UNL1       -0.0002
     19 O          66.4879   94.8789   12.4743 O.3     1  UNL1       -0.4714
     20 C          66.3248   96.0999   11.6182 C.3     1  UNL1        0.2525
     21 O          64.5537   88.9934   13.2859 O.3     1  UNL1       -0.2124
     22 O          64.3380   88.4341   14.6609 O.3     1  UNL1       -0.2200
     23 C          63.0744   88.5862   16.9259 C.3     1  UNL1        0.0382
     24 C          63.6268   89.2500   15.6994 C.3     1  UNL1        0.1822
     25 C          61.3991   85.4846   11.4905 C.3     1  UNL1        0.1156
     26 C          62.4247   84.3954   11.5998 C.3     1  UNL1        0.0943
     27 N          63.2984   84.0674   10.4254 N.3     1  UNL1       -0.2688
     28 C          63.1138   84.7952    9.1269 C.3     1  UNL1        0.0897
     29 C          64.3567   83.0116   10.5497 C.3     1  UNL1        0.0897
@<TRIPOS>BOND
     1    23    24    1
     2    24    22    1
     3    22    21    1
     4     1    21    1
     5     1     2    1
     6     2     3    2
     7     2     4   am
     8     4    25    1
     9    25    26    1
    10    26    27    1
    11    27    28    1
    12    27    29    1
    13     4     5    1
    14     5     6   ar
    15     6     7   ar
    16     7     8   ar
    17     8     9   ar
    18     9    10   ar
    19    10    11    1
    20    11    12    1
    21    12    13    1
    22    13    14   ar
    23    14    15   ar
    24    15    16   ar
    25    16    19    1
    26    19    20    1
    27    16    17   ar
    28    17    18   ar
    29    12     1    1
    30    18    13   ar
    31    10     5   ar
@<TRIPOS>MOLECULE
*****
 29 31 0 0 0
SMALL
GASTEIGER

@<TRIPOS>ATOM
      1 C          63.0951   90.3302   12.7444 C.3     1  UNL1        0.2420
      2 C          63.8720   91.0728   13.7908 C.2     1  UNL1        0.2611
      3 O          63.6053   90.6669   15.2099 O.2     1  UNL1       -0.2718
      4 N          64.8804   92.1677   13.6055 N.am    1  UNL1       -0.2546
      5 C          65.3610   92.7905   12.3283 C.ar    1  UNL1        0.0596
      6 C          66.3804   93.8594   12.5894 C.ar    1  UNL1        0.0154
      7 C          66.9907   94.6098   11.4430 C.ar    1  UNL1        0.0013
      8 C          66.5815   94.2914   10.0354 C.ar    1  UNL1        0.0006
      9 C          65.5620   93.2225    9.7743 C.ar    1  UNL1        0.0074
     10 C          64.9518   92.4721   10.9208 C.ar    1  UNL1        0.0393
     11 S          63.9610   91.4523   10.4429 S.3     1  UNL1       -0.1057
     12 C          63.1346   90.4991   11.2544 C.3     1  UNL1        0.1135
     13 C          62.2281   89.5952   10.4727 C.ar    1  UNL1       -0.0090
     14 C          61.0785   90.1715    9.7004 C.ar    1  UNL1       -0.0002
     15 C          60.1719   89.2677    8.9187 C.ar    1  UNL1        0.0366
     16 C          60.4149   87.7875    8.9092 C.ar    1  UNL1        0.1387
     17 C          61.5645   87.2112    9.6814 C.ar    1  UNL1        0.0366
     18 C          62.4711   88.1150   10.4632 C.ar    1  UNL1       -0.0002
     19 O          59.5083   86.8837    8.1275 O.3     1  UNL1       -0.4714
     20 C          60.0831   85.7439    7.3395 C.3     1  UNL1        0.2525
     21 O          62.1542   89.2798   13.2555 O.3     1  UNL1       -0.2124
     22 O          60.7125   89.6171   13.4959 O.3     1  UNL1       -0.2200
     23 C          58.2407   88.9563   13.0449 C.3     1  UNL1        0.0382
     24 C          59.6556   89.0972   12.5672 C.3     1  UNL1        0.1822
     25 C          65.4888   92.7119   14.8640 C.3     1  UNL1        0.1156
     26 C          66.6951   92.0498   15.4611 C.3     1  UNL1        0.0943
     27 N          68.0693   92.5379   15.1101 N.3     1  UNL1       -0.2688
     28 C          68.8805   91.8150   14.0760 C.3     1  UNL1        0.0897
     29 C          68.6323   93.7490   15.7932 C.3     1  UNL1        0.0897
@<TRIPOS>BOND
     1    23    24    1
     2    24    22    1
     3    22    21    1
     4     1    21    1
     5     1     2    1
     6     2     3    2
     7     2     4   am
     8     4    25    1
     9    25    26    1
    10    26    27    1
    11    27    28    1
    12    27    29    1
    13     4     5    1
    14     5     6   ar
    15     6     7   ar
    16     7     8   ar
    17     8     9   ar
    18     9    10   ar
    19    10    11    1
    20    11    12    1
    21    12    13    1
    22    13    14   ar
    23    14    15   ar
    24    15    16   ar
    25    16    19    1
    26    19    20    1
    27    16    17   ar
    28    17    18   ar
    29    12     1    1
    30    18    13   ar
    31    10     5   ar
