@<TRIPOS>MOLECULE
*****
 22 24 0 0 0
SMALL
GASTEIGER

@<TRIPOS>ATOM
      1 N          65.2724   91.9079   12.9323 N.pl3   1  UNL1       -0.3035
      2 C          64.2351   91.1422   12.1656 C.ar    1  UNL1        0.0481
      3 C          63.8043   91.6150   10.8088 C.ar    1  UNL1        0.0145
      4 C          62.7671   90.8492   10.0421 C.ar    1  UNL1        0.0013
      5 C          62.1607   89.6107   10.6322 C.ar    1  UNL1        0.0001
      6 C          62.5915   89.1378   11.9890 C.ar    1  UNL1        0.0013
      7 C          63.6287   89.9035   12.7557 C.ar    1  UNL1        0.0145
      8 C          65.7369   93.2449   12.4357 C.3     1  UNL1        0.1186
      9 CL         67.4839   95.9042    8.3276 Cl      1  UNL1       -0.0814
     10 C          67.4854   94.6605    9.1664 C.ar    1  UNL1        0.0679
     11 C          68.3619   93.5030    8.7898 C.ar    1  UNL1        0.0122
     12 C          68.3634   92.2594    9.6285 C.ar    1  UNL1        0.0007
     13 C          67.4885   92.1734   10.8438 C.ar    1  UNL1       -0.0017
     14 C          66.6119   93.3310   11.2204 C.ar    1  UNL1        0.0090
     15 C          66.6104   94.5745   10.3817 C.ar    1  UNL1        0.0658
     16 CL         65.7339   95.7321   10.7582 Cl      1  UNL1       -0.0816
     17 C          65.8450   91.3366   14.1955 C.3     1  UNL1        0.0938
     18 C          66.9653   92.0443   14.8983 C.3     1  UNL1        0.0512
     19 C          67.0874   92.8458   16.1604 C.3     1  UNL1        0.0716
     20 N          68.5497   93.0452   15.8922 N.3     1  UNL1       -0.2973
     21 C          68.4276   92.2437   14.6302 C.3     1  UNL1        0.0716
     22 H          69.1623   92.6278   16.5929 H       1  UNL1        0.1233
@<TRIPOS>BOND
     1     9    10    1
     2    10    11   ar
     3    11    12   ar
     4    12    13   ar
     5    13    14   ar
     6    14     8    1
     7     8     1    1
     8     1    17    1
     9    17    18    1
    10    18    19    1
    11    19    20    1
    12    20    21    1
    13     1     2    1
    14     2     3   ar
    15     3     4   ar
    16     4     5   ar
    17     5     6   ar
    18     6     7   ar
    19    14    15   ar
    20    15    16    1
    21    15    10   ar
    22    21    18    1
    23     7     2   ar
    24    20    22    1
@<TRIPOS>MOLECULE
*****
 22 24 0 0 0
SMALL
GASTEIGER

@<TRIPOS>ATOM
      1 N          62.0959   87.1420   10.6040 N.pl3   1  UNL1       -0.3035
      2 C          62.6433   88.3856   11.2394 C.ar    1  UNL1        0.0481
      3 C          63.2884   88.3154   12.5917 C.ar    1  UNL1        0.0145
      4 C          63.8358   89.5590   13.2271 C.ar    1  UNL1        0.0013
      5 C          63.7382   90.8729   12.5101 C.ar    1  UNL1        0.0001
      6 C          63.0932   90.9432   11.1577 C.ar    1  UNL1        0.0013
      7 C          62.5457   89.6996   10.5223 C.ar    1  UNL1        0.0145
      8 C          61.7454   85.9572   11.4544 C.3     1  UNL1        0.1186
      9 CL         63.9656   81.9829   13.9597 Cl      1  UNL1       -0.0814
     10 C          63.7306   82.7519   12.6934 C.ar    1  UNL1        0.0679
     11 C          64.3708   82.3027   11.4134 C.ar    1  UNL1        0.0122
     12 C          64.1359   83.0716   10.1471 C.ar    1  UNL1        0.0007
     13 C          63.2607   84.2897   10.1608 C.ar    1  UNL1       -0.0017
     14 C          62.6206   84.7390   11.4408 C.ar    1  UNL1        0.0090
     15 C          62.8555   83.9701   12.7071 C.ar    1  UNL1        0.0658
     16 CL         62.2153   84.4193   13.9870 Cl      1  UNL1       -0.0816
     17 C          61.8990   87.0833    9.1181 C.3     1  UNL1        0.0938
     18 C          60.5220   86.9048    8.5505 C.3     1  UNL1        0.0512
     19 C          59.2055   87.6030    8.7217 C.3     1  UNL1        0.0716
     20 N          58.5747   86.6524    7.7478 N.3     1  UNL1       -0.2973
     21 C          59.8913   85.9542    7.5766 C.3     1  UNL1        0.0716
     22 H          58.2256   87.0969    6.8987 H       1  UNL1        0.1233
@<TRIPOS>BOND
     1     9    10    1
     2    10    11   ar
     3    11    12   ar
     4    12    13   ar
     5    13    14   ar
     6    14     8    1
     7     8     1    1
     8     1    17    1
     9    17    18    1
    10    18    19    1
    11    19    20    1
    12    20    21    1
    13     1     2    1
    14     2     3   ar
    15     3     4   ar
    16     4     5   ar
    17     5     6   ar
    18     6     7   ar
    19    14    15   ar
    20    15    16    1
    21    15    10   ar
    22    21    18    1
    23     7     2   ar
    24    20    22    1
@<TRIPOS>MOLECULE
*****
 22 24 0 0 0
SMALL
GASTEIGER

@<TRIPOS>ATOM
      1 N          62.3023   86.2997   10.4430 N.pl3   1  UNL1       -0.3035
      2 C          62.9628   85.0281   10.8866 C.ar    1  UNL1        0.0481
      3 C          63.0503   84.6984   12.3473 C.ar    1  UNL1        0.0145
      4 C          63.7108   83.4268   12.7909 C.ar    1  UNL1        0.0013
      5 C          64.2838   82.4849   11.7739 C.ar    1  UNL1        0.0001
      6 C          64.1964   82.8146   10.3131 C.ar    1  UNL1        0.0013
      7 C          63.5359   84.0862    9.8695 C.ar    1  UNL1        0.0145
      8 C          61.9093   87.3337   11.4561 C.3     1  UNL1        0.1186
      9 CL         64.9616   90.9623   13.5813 Cl      1  UNL1       -0.0814
     10 C          64.0536   90.5140   12.4747 C.ar    1  UNL1        0.0679
     11 C          63.7637   91.4317   11.3241 C.ar    1  UNL1        0.0122
     12 C          62.8558   90.9834   10.2176 C.ar    1  UNL1        0.0007
     13 C          62.2376   89.6174   10.2615 C.ar    1  UNL1       -0.0017
     14 C          62.5275   88.6997   11.4121 C.ar    1  UNL1        0.0090
     15 C          63.4355   89.1480   12.5187 C.ar    1  UNL1        0.0658
     16 CL         63.7253   88.2303   13.6693 Cl      1  UNL1       -0.0816
     17 C          62.0348   86.5372    8.9862 C.3     1  UNL1        0.0938
     18 C          60.6229   86.6165    8.4862 C.3     1  UNL1        0.0512
     19 C          59.8235   85.8886    7.4463 C.3     1  UNL1        0.0716
     20 N          58.6261   86.7285    7.7789 N.3     1  UNL1       -0.2973
     21 C          59.4254   87.4564    8.8188 C.3     1  UNL1        0.0716
     22 H          57.8381   86.2003    8.1537 H       1  UNL1        0.1233
@<TRIPOS>BOND
     1     9    10    1
     2    10    11   ar
     3    11    12   ar
     4    12    13   ar
     5    13    14   ar
     6    14     8    1
     7     8     1    1
     8     1    17    1
     9    17    18    1
    10    18    19    1
    11    19    20    1
    12    20    21    1
    13     1     2    1
    14     2     3   ar
    15     3     4   ar
    16     4     5   ar
    17     5     6   ar
    18     6     7   ar
    19    14    15   ar
    20    15    16    1
    21    15    10   ar
    22    21    18    1
    23     7     2   ar
    24    20    22    1
@<TRIPOS>MOLECULE
*****
 22 24 0 0 0
SMALL
GASTEIGER

@<TRIPOS>ATOM
      1 N          63.2318   84.3265   13.6330 N.pl3   1  UNL1       -0.3035
      2 C          63.1828   84.5016   12.1441 C.ar    1  UNL1        0.0481
      3 C          63.9334   83.5571   11.2528 C.ar    1  UNL1        0.0145
      4 C          63.8845   83.7322    9.7638 C.ar    1  UNL1        0.0013
      5 C          63.0849   84.8518    9.1662 C.ar    1  UNL1        0.0001
      6 C          62.3343   85.7964   10.0575 C.ar    1  UNL1        0.0013
      7 C          62.3832   85.6213   11.5465 C.ar    1  UNL1        0.0145
      8 C          64.2199   85.1072   14.4479 C.3     1  UNL1        0.1186
      9 CL         63.2980   89.9043   16.2194 Cl      1  UNL1       -0.0814
     10 C          63.2783   88.4182   16.4228 C.ar    1  UNL1        0.0679
     11 C          62.7779   87.8448   17.7154 C.ar    1  UNL1        0.0122
     12 C          62.7581   86.3588   17.9188 C.ar    1  UNL1        0.0007
     13 C          63.2388   85.4463   16.8297 C.ar    1  UNL1       -0.0017
     14 C          63.7392   86.0198   15.5371 C.ar    1  UNL1        0.0090
     15 C          63.7589   87.5058   15.3337 C.ar    1  UNL1        0.0658
     16 CL         64.2594   88.0792   14.0411 Cl      1  UNL1       -0.0816
     17 C          62.2925   83.3707   14.3071 C.3     1  UNL1        0.0938
     18 C          62.3196   81.9144   13.9488 C.3     1  UNL1        0.0512
     19 C          61.2936   80.8233   13.8654 C.3     1  UNL1        0.0716
     20 N          62.3580   79.8548   13.4421 N.3     1  UNL1       -0.2973
     21 C          63.3840   80.9459   13.5255 C.3     1  UNL1        0.0716
     22 H          62.2275   79.4767   12.5038 H       1  UNL1        0.1233
@<TRIPOS>BOND
     1     9    10    1
     2    10    11   ar
     3    11    12   ar
     4    12    13   ar
     5    13    14   ar
     6    14     8    1
     7     8     1    1
     8     1    17    1
     9    17    18    1
    10    18    19    1
    11    19    20    1
    12    20    21    1
    13     1     2    1
    14     2     3   ar
    15     3     4   ar
    16     4     5   ar
    17     5     6   ar
    18     6     7   ar
    19    14    15   ar
    20    15    16    1
    21    15    10   ar
    22    21    18    1
    23     7     2   ar
    24    20    22    1
@<TRIPOS>MOLECULE
*****
 22 24 0 0 0
SMALL
GASTEIGER

@<TRIPOS>ATOM
      1 N          65.4070   91.9750   12.6639 N.pl3   1  UNL1       -0.3035
      2 C          66.4062   92.1556   13.7680 C.ar    1  UNL1        0.0481
      3 C          65.9502   92.5949   15.1277 C.ar    1  UNL1        0.0145
      4 C          66.9494   92.7755   16.2318 C.ar    1  UNL1        0.0013
      5 C          68.4046   92.5168   15.9761 C.ar    1  UNL1        0.0001
      6 C          68.8607   92.0775   14.6163 C.ar    1  UNL1        0.0013
      7 C          67.8615   91.8969   13.5122 C.ar    1  UNL1        0.0145
      8 C          64.0261   91.4794   12.9757 C.3     1  UNL1        0.1186
      9 CL         62.7230   86.5641   11.9066 Cl      1  UNL1       -0.0814
     10 C          62.7165   88.0189   11.5406 C.ar    1  UNL1        0.0679
     11 C          62.0520   88.4706   10.2740 C.ar    1  UNL1        0.0122
     12 C          62.0454   89.9252    9.9079 C.ar    1  UNL1        0.0007
     13 C          62.7035   90.9281   10.8085 C.ar    1  UNL1       -0.0017
     14 C          63.3680   90.4764   12.0751 C.ar    1  UNL1        0.0090
     15 C          63.3746   89.0218   12.4411 C.ar    1  UNL1        0.0658
     16 CL         64.0392   88.5701   13.7078 Cl      1  UNL1       -0.0816
     17 C          65.7888   92.2901   11.2479 C.3     1  UNL1        0.0938
     18 C          66.2507   93.6703   10.8850 C.3     1  UNL1        0.0512
     19 C          66.9935   94.2703    9.7282 C.3     1  UNL1        0.0716
     20 N          66.9039   95.6223   10.3719 N.3     1  UNL1       -0.2973
     21 C          66.1610   95.0223   11.5286 C.3     1  UNL1        0.0716
     22 H          66.3634   96.3027    9.8378 H       1  UNL1        0.1233
@<TRIPOS>BOND
     1     9    10    1
     2    10    11   ar
     3    11    12   ar
     4    12    13   ar
     5    13    14   ar
     6    14     8    1
     7     8     1    1
     8     1    17    1
     9    17    18    1
    10    18    19    1
    11    19    20    1
    12    20    21    1
    13     1     2    1
    14     2     3   ar
    15     3     4   ar
    16     4     5   ar
    17     5     6   ar
    18     6     7   ar
    19    14    15   ar
    20    15    16    1
    21    15    10   ar
    22    21    18    1
    23     7     2   ar
    24    20    22    1
@<TRIPOS>MOLECULE
*****
 22 24 0 0 0
SMALL
GASTEIGER

@<TRIPOS>ATOM
      1 N          63.2242   84.4814   13.2909 N.pl3   1  UNL1       -0.3035
      2 C          63.0984   84.7032   11.8127 C.ar    1  UNL1        0.0481
      3 C          62.3133   85.8712   11.2937 C.ar    1  UNL1        0.0145
      4 C          62.1875   86.0931    9.8156 C.ar    1  UNL1        0.0013
      5 C          62.8467   85.1468    8.8564 C.ar    1  UNL1        0.0001
      6 C          63.6317   83.9787    9.3753 C.ar    1  UNL1        0.0013
      7 C          63.7576   83.7569   10.8535 C.ar    1  UNL1        0.0145
      8 C          64.3125   85.1673   14.0622 C.3     1  UNL1        0.1186
      9 CL         62.5644   87.1926   18.5168 Cl      1  UNL1       -0.0814
     10 C          63.1185   87.3769   17.1350 C.ar    1  UNL1        0.0679
     11 C          63.3525   88.7581   16.5989 C.ar    1  UNL1        0.0122
     12 C          63.9065   88.9424   15.2172 C.ar    1  UNL1        0.0007
     13 C          64.2265   87.7455   14.3717 C.ar    1  UNL1       -0.0017
     14 C          63.9925   86.3643   14.9078 C.ar    1  UNL1        0.0090
     15 C          63.4384   86.1800   16.2895 C.ar    1  UNL1        0.0658
     16 CL         63.2044   84.7988   16.8256 Cl      1  UNL1       -0.0816
     17 C          62.2617   83.5736   13.9977 C.3     1  UNL1        0.0938
     18 C          62.3318   82.0910   13.7806 C.3     1  UNL1        0.0512
     19 C          63.4122   81.1258   13.3921 C.3     1  UNL1        0.0716
     20 N          62.4309   79.9944   13.4737 N.3     1  UNL1       -0.2973
     21 C          61.3504   80.9596   13.8622 C.3     1  UNL1        0.0716
     22 H          62.6503   79.3038   14.1916 H       1  UNL1        0.1233
@<TRIPOS>BOND
     1     9    10    1
     2    10    11   ar
     3    11    12   ar
     4    12    13   ar
     5    13    14   ar
     6    14     8    1
     7     8     1    1
     8     1    17    1
     9    17    18    1
    10    18    19    1
    11    19    20    1
    12    20    21    1
    13     1     2    1
    14     2     3   ar
    15     3     4   ar
    16     4     5   ar
    17     5     6   ar
    18     6     7   ar
    19    14    15   ar
    20    15    16    1
    21    15    10   ar
    22    21    18    1
    23     7     2   ar
    24    20    22    1
@<TRIPOS>MOLECULE
*****
 22 24 0 0 0
SMALL
GASTEIGER

@<TRIPOS>ATOM
      1 N          62.4989   86.7508   11.7372 N.pl3   1  UNL1       -0.3035
      2 C          62.8047   88.2180   11.6758 C.ar    1  UNL1        0.0481
      3 C          62.4398   89.0096   10.4550 C.ar    1  UNL1        0.0145
      4 C          62.7456   90.4768   10.3936 C.ar    1  UNL1        0.0013
      5 C          63.4161   91.1524   11.5528 C.ar    1  UNL1        0.0001
      6 C          63.7810   90.3608   12.7736 C.ar    1  UNL1        0.0013
      7 C          63.4753   88.8936   12.8351 C.ar    1  UNL1        0.0145
      8 C          63.4372   85.8181   12.4442 C.3     1  UNL1        0.1186
      9 CL         62.9981   80.8549   10.9697 Cl      1  UNL1       -0.0814
     10 C          62.7956   81.9271   11.9990 C.ar    1  UNL1        0.0679
     11 C          62.1710   81.5898   13.3204 C.ar    1  UNL1        0.0122
     12 C          61.9684   82.6619   14.3497 C.ar    1  UNL1        0.0007
     13 C          62.3905   84.0713   14.0576 C.ar    1  UNL1       -0.0017
     14 C          63.0151   84.4086   12.7362 C.ar    1  UNL1        0.0090
     15 C          63.2177   83.3365   11.7069 C.ar    1  UNL1        0.0658
     16 CL         63.8423   83.6738   10.3855 Cl      1  UNL1       -0.0816
     17 C          61.2549   86.2162   11.0917 C.3     1  UNL1        0.0938
     18 C          61.1680   86.1182    9.5975 C.3     1  UNL1        0.0512
     19 C          62.1367   85.8002    8.4973 C.3     1  UNL1        0.0716
     20 N          61.0451   85.9797    7.4842 N.3     1  UNL1       -0.2973
     21 C          60.0764   86.2978    8.5844 C.3     1  UNL1        0.0716
     22 H          60.8186   85.1335    6.9617 H       1  UNL1        0.1233
@<TRIPOS>BOND
     1     9    10    1
     2    10    11   ar
     3    11    12   ar
     4    12    13   ar
     5    13    14   ar
     6    14     8    1
     7     8     1    1
     8     1    17    1
     9    17    18    1
    10    18    19    1
    11    19    20    1
    12    20    21    1
    13     1     2    1
    14     2     3   ar
    15     3     4   ar
    16     4     5   ar
    17     5     6   ar
    18     6     7   ar
    19    14    15   ar
    20    15    16    1
    21    15    10   ar
    22    21    18    1
    23     7     2   ar
    24    20    22    1
@<TRIPOS>MOLECULE
*****
 22 24 0 0 0
SMALL
GASTEIGER

@<TRIPOS>ATOM
      1 N          62.4018   86.4023   11.1447 N.pl3   1  UNL1       -0.3035
      2 C          62.0615   85.9959    9.7415 C.ar    1  UNL1        0.0481
      3 C          60.7085   86.3119    9.1763 C.ar    1  UNL1        0.0145
      4 C          60.3682   85.9055    7.7731 C.ar    1  UNL1        0.0013
      5 C          61.3809   85.1831    6.9350 C.ar    1  UNL1        0.0001
      6 C          62.7340   84.8670    7.5001 C.ar    1  UNL1        0.0013
      7 C          63.0743   85.2734    8.9034 C.ar    1  UNL1        0.0145
      8 C          61.8143   87.6538   11.7264 C.3     1  UNL1        0.1186
      9 CL         65.0675   91.3510   13.3839 Cl      1  UNL1       -0.0814
     10 C          64.1251   90.8205   12.3444 C.ar    1  UNL1        0.0679
     11 C          63.8669   91.6081   11.0942 C.ar    1  UNL1        0.0122
     12 C          62.9245   91.0776   10.0548 C.ar    1  UNL1        0.0007
     13 C          62.2404   89.7595   10.2655 C.ar    1  UNL1       -0.0017
     14 C          62.4985   88.9719   11.5157 C.ar    1  UNL1        0.0090
     15 C          63.4409   89.5024   12.5552 C.ar    1  UNL1        0.0658
     16 CL         63.6990   88.7148   13.8054 Cl      1  UNL1       -0.0816
     17 C          63.3298   85.5571   11.9661 C.3     1  UNL1        0.0938
     18 C          62.8934   84.1998   12.4321 C.3     1  UNL1        0.0512
     19 C          62.6786   82.8701   11.7720 C.3     1  UNL1        0.0716
     20 N          62.2763   82.2802   13.0911 N.3     1  UNL1       -0.2973
     21 C          62.4911   83.6099   13.7513 C.3     1  UNL1        0.0716
     22 H          62.8983   81.5441   13.4252 H       1  UNL1        0.1233
@<TRIPOS>BOND
     1     9    10    1
     2    10    11   ar
     3    11    12   ar
     4    12    13   ar
     5    13    14   ar
     6    14     8    1
     7     8     1    1
     8     1    17    1
     9    17    18    1
    10    18    19    1
    11    19    20    1
    12    20    21    1
    13     1     2    1
    14     2     3   ar
    15     3     4   ar
    16     4     5   ar
    17     5     6   ar
    18     6     7   ar
    19    14    15   ar
    20    15    16    1
    21    15    10   ar
    22    21    18    1
    23     7     2   ar
    24    20    22    1
@<TRIPOS>MOLECULE
*****
 22 24 0 0 0
SMALL
GASTEIGER

@<TRIPOS>ATOM
      1 N          62.2338   87.4728   11.0444 N.pl3   1  UNL1       -0.3035
      2 C          62.6452   86.2002   11.7236 C.ar    1  UNL1        0.0481
      3 C          63.3717   86.2509   13.0348 C.ar    1  UNL1        0.0145
      4 C          63.7831   84.9783   13.7140 C.ar    1  UNL1        0.0013
      5 C          63.4678   83.6550   13.0820 C.ar    1  UNL1        0.0001
      6 C          62.7412   83.6043   11.7706 C.ar    1  UNL1        0.0013
      7 C          62.3299   84.8769   11.0914 C.ar    1  UNL1        0.0145
      8 C          61.9086   88.6879   11.8615 C.3     1  UNL1        0.1186
      9 CL         64.9205   92.7792   10.7708 Cl      1  UNL1       -0.0814
     10 C          64.5042   91.6862   11.7100 C.ar    1  UNL1        0.0679
     11 C          65.1775   91.5459   13.0430 C.ar    1  UNL1        0.0122
     12 C          64.7613   90.4529   13.9822 C.ar    1  UNL1        0.0007
     13 C          63.6716   89.5003   13.5884 C.ar    1  UNL1       -0.0017
     14 C          62.9983   89.6406   12.2554 C.ar    1  UNL1        0.0090
     15 C          63.4146   90.7335   11.3162 C.ar    1  UNL1        0.0658
     16 CL         62.7412   90.8738    9.9831 Cl      1  UNL1       -0.0816
     17 C          62.1477   87.5303    9.5479 C.3     1  UNL1        0.0938
     18 C          60.8960   87.0859    8.8511 C.3     1  UNL1        0.0512
     19 C          59.4591   87.5159    8.8747 C.3     1  UNL1        0.0716
     20 N          59.1257   86.4574    7.8656 N.3     1  UNL1       -0.2973
     21 C          60.5626   86.0274    7.8419 C.3     1  UNL1        0.0716
     22 H          58.7856   86.8226    6.9760 H       1  UNL1        0.1233
@<TRIPOS>BOND
     1     9    10    1
     2    10    11   ar
     3    11    12   ar
     4    12    13   ar
     5    13    14   ar
     6    14     8    1
     7     8     1    1
     8     1    17    1
     9    17    18    1
    10    18    19    1
    11    19    20    1
    12    20    21    1
    13     1     2    1
    14     2     3   ar
    15     3     4   ar
    16     4     5   ar
    17     5     6   ar
    18     6     7   ar
    19    14    15   ar
    20    15    16    1
    21    15    10   ar
    22    21    18    1
    23     7     2   ar
    24    20    22    1
