@<TRIPOS>MOLECULE
*****
 26 29 0 0 0
SMALL
GASTEIGER

@<TRIPOS>ATOM
      1 C          63.0308   85.6074   12.3763 C.ar    1  UNL1       -0.0002
      2 C          63.7329   86.3181   13.4952 C.ar    1  UNL1       -0.0000
      3 C          63.8374   87.8144   13.4845 C.ar    1  UNL1       -0.0003
      4 C          63.2398   88.6000   12.3550 C.ar    1  UNL1       -0.0043
      5 C          62.5376   87.8892   11.2362 C.ar    1  UNL1       -0.0218
      6 C          62.4332   86.3929   11.2469 C.ar    1  UNL1       -0.0043
      7 C          61.9400   88.6748   10.1067 C.3     1  UNL1        0.0310
      8 C          62.0445   90.1710   10.0961 C.3     1  UNL1        0.0307
      9 C          62.7466   90.8819   11.2149 C.2     1  UNL1       -0.0258
     10 C          63.3443   90.0963   12.3444 C.2     1  UNL1       -0.0045
     11 O          62.6128   79.6221   12.4189 O.3     1  UNL1       -0.5029
     12 C          62.7173   81.1184   12.4082 C.ar    1  UNL1        0.1675
     13 C          63.1767   81.8293   11.1699 C.ar    1  UNL1        0.0398
     14 C          63.2812   83.3257   11.1593 C.ar    1  UNL1        0.0033
     15 C          62.9263   84.1110   12.3870 C.ar    1  UNL1        0.0032
     16 C          62.4669   83.4001   13.6253 C.ar    1  UNL1        0.0398
     17 C          62.3624   81.9038   13.6360 C.ar    1  UNL1        0.1675
     18 O          61.9031   81.1928   14.8743 O.3     1  UNL1       -0.5029
     19 H          62.8345   79.1315   11.6520 H       1  UNL1        0.2923
     20 H          61.6814   81.6834   15.6412 H       1  UNL1        0.2923
     21 C          64.0464   90.8071   13.4632 C.ar    1  UNL1        0.0028
     22 C          63.5462   90.6686   14.8706 C.ar    1  UNL1        0.0207
     23 C          64.2484   91.3794   15.9895 C.ar    1  UNL1        0.0989
     24 N          65.4507   92.2286   15.7009 N.ar    1  UNL1       -0.2423
     25 C          65.9509   92.3671   14.2936 C.ar    1  UNL1        0.0989
     26 C          65.2488   91.6563   13.1747 C.ar    1  UNL1        0.0207
@<TRIPOS>BOND
     1    11    12    1
     2    12    13   ar
     3    13    14   ar
     4    14    15   ar
     5    15     1    1
     6     1     2   ar
     7     2     3   ar
     8     3     4   ar
     9     4     5   ar
    10     5     6   ar
    11     5     7    1
    12     7     8    1
    13     8     9    1
    14     9    10    2
    15    10    21    1
    16    21    22   ar
    17    22    23   ar
    18    23    24   ar
    19    24    25   ar
    20    25    26   ar
    21    15    16   ar
    22    16    17   ar
    23    17    18    1
    24    17    12   ar
    25     6     1   ar
    26    26    21   ar
    27    10     4    1
    28    11    19    1
    29    18    20    1
@<TRIPOS>MOLECULE
*****
 26 29 0 0 0
SMALL
GASTEIGER

@<TRIPOS>ATOM
      1 C          63.0495   85.6946   12.7184 C.ar    1  UNL1       -0.0002
      2 C          63.7585   86.4475   13.8049 C.ar    1  UNL1       -0.0000
      3 C          63.9171   87.9358   13.7054 C.ar    1  UNL1       -0.0003
      4 C          63.3667   88.6711   12.5195 C.ar    1  UNL1       -0.0043
      5 C          62.6577   87.9182   11.4331 C.ar    1  UNL1       -0.0218
      6 C          62.4991   86.4299   11.5325 C.ar    1  UNL1       -0.0043
      7 C          62.1074   88.6535   10.2471 C.3     1  UNL1        0.0310
      8 C          62.2660   90.1417   10.1477 C.3     1  UNL1        0.0307
      9 C          62.9750   90.8947   11.2342 C.2     1  UNL1       -0.0258
     10 C          63.5253   90.1594   12.4201 C.2     1  UNL1       -0.0045
     11 O          62.4150   79.7415   13.1160 O.3     1  UNL1       -0.5029
     12 C          62.5736   81.2297   13.0167 C.ar    1  UNL1        0.1675
     13 C          62.3809   82.0873   14.2321 C.ar    1  UNL1        0.0398
     14 C          62.5395   83.5757   14.1327 C.ar    1  UNL1        0.0033
     15 C          62.8909   84.2063   12.8179 C.ar    1  UNL1        0.0032
     16 C          63.0836   83.3487   11.6024 C.ar    1  UNL1        0.0398
     17 C          62.9250   81.8604   11.7018 C.ar    1  UNL1        0.1675
     18 O          63.1177   81.0028   10.4863 O.3     1  UNL1       -0.5029
     19 H          62.1955   79.3475   13.9374 H       1  UNL1        0.2923
     20 H          63.3372   81.3968    9.6650 H       1  UNL1        0.2923
     21 C          64.2343   90.9123   13.5065 C.ar    1  UNL1        0.0028
     22 C          63.7597   90.8059   14.9255 C.ar    1  UNL1        0.0207
     23 C          64.4688   91.5589   16.0120 C.ar    1  UNL1        0.0989
     24 N          65.6523   92.4182   15.6795 N.ar    1  UNL1       -0.2423
     25 C          66.1269   92.5247   14.2605 C.ar    1  UNL1        0.0989
     26 C          65.4180   91.7718   13.1741 C.ar    1  UNL1        0.0207
@<TRIPOS>BOND
     1    11    12    1
     2    12    13   ar
     3    13    14   ar
     4    14    15   ar
     5    15     1    1
     6     1     2   ar
     7     2     3   ar
     8     3     4   ar
     9     4     5   ar
    10     5     6   ar
    11     5     7    1
    12     7     8    1
    13     8     9    1
    14     9    10    2
    15    10    21    1
    16    21    22   ar
    17    22    23   ar
    18    23    24   ar
    19    24    25   ar
    20    25    26   ar
    21    15    16   ar
    22    16    17   ar
    23    17    18    1
    24    17    12   ar
    25     6     1   ar
    26    26    21   ar
    27    10     4    1
    28    11    19    1
    29    18    20    1
@<TRIPOS>MOLECULE
*****
 26 29 0 0 0
SMALL
GASTEIGER

@<TRIPOS>ATOM
      1 C          62.4152   89.8645   10.3833 C.ar    1  UNL1       -0.0002
      2 C          63.0325   90.9802    9.5935 C.ar    1  UNL1       -0.0000
      3 C          64.0722   91.8590   10.2232 C.ar    1  UNL1       -0.0003
      4 C          64.4947   91.6220   11.6429 C.ar    1  UNL1       -0.0043
      5 C          63.8774   90.5062   12.4327 C.ar    1  UNL1       -0.0218
      6 C          62.8376   89.6275   11.8030 C.ar    1  UNL1       -0.0043
      7 C          64.2998   90.2692   13.8524 C.3     1  UNL1        0.0310
      8 C          65.3396   91.1480   14.4821 C.3     1  UNL1        0.0307
      9 C          65.9569   92.2638   13.6923 C.2     1  UNL1       -0.0258
     10 C          65.5345   92.5008   12.2726 C.2     1  UNL1       -0.0045
     11 O          58.2561   86.3493    7.8643 O.3     1  UNL1       -0.5029
     12 C          59.2958   87.2280    8.4941 C.ar    1  UNL1        0.1675
     13 C          60.1227   86.7126    9.6345 C.ar    1  UNL1        0.0398
     14 C          61.1625   87.5914   10.2643 C.ar    1  UNL1        0.0033
     15 C          61.3754   88.9856    9.7536 C.ar    1  UNL1        0.0032
     16 C          60.5485   89.5011    8.6131 C.ar    1  UNL1        0.0398
     17 C          59.5088   88.6223    7.9834 C.ar    1  UNL1        0.1675
     18 O          58.6819   89.1377    6.8429 O.3     1  UNL1       -0.5029
     19 H          58.1231   85.4783    8.1833 H       1  UNL1        0.2923
     20 H          58.8149   90.0087    6.5239 H       1  UNL1        0.2923
     21 C          66.1518   93.6166   11.4827 C.ar    1  UNL1        0.0028
     22 C          65.9108   95.0419   11.8834 C.ar    1  UNL1        0.0207
     23 C          66.5282   96.1577   11.0935 C.ar    1  UNL1        0.0989
     24 N          67.3865   95.8482    9.9029 N.ar    1  UNL1       -0.2423
     25 C          67.6275   94.4229    9.5022 C.ar    1  UNL1        0.0989
     26 C          67.0102   93.3071   10.2921 C.ar    1  UNL1        0.0207
@<TRIPOS>BOND
     1    11    12    1
     2    12    13   ar
     3    13    14   ar
     4    14    15   ar
     5    15     1    1
     6     1     2   ar
     7     2     3   ar
     8     3     4   ar
     9     4     5   ar
    10     5     6   ar
    11     5     7    1
    12     7     8    1
    13     8     9    1
    14     9    10    2
    15    10    21    1
    16    21    22   ar
    17    22    23   ar
    18    23    24   ar
    19    24    25   ar
    20    25    26   ar
    21    15    16   ar
    22    16    17   ar
    23    17    18    1
    24    17    12   ar
    25     6     1   ar
    26    26    21   ar
    27    10     4    1
    28    11    19    1
    29    18    20    1
@<TRIPOS>MOLECULE
*****
 26 29 0 0 0
SMALL
GASTEIGER

@<TRIPOS>ATOM
      1 C          64.4351   89.0281   13.9889 C.ar    1  UNL1       -0.0002
      2 C          64.6371   87.6782   14.6108 C.ar    1  UNL1       -0.0000
      3 C          64.0026   86.4664   13.9954 C.ar    1  UNL1       -0.0003
      4 C          63.1661   86.6045   12.7580 C.ar    1  UNL1       -0.0043
      5 C          62.9640   87.9544   12.1361 C.ar    1  UNL1       -0.0218
      6 C          63.5985   89.1662   12.7515 C.ar    1  UNL1       -0.0043
      7 C          62.1275   88.0925   10.8987 C.3     1  UNL1        0.0310
      8 C          61.4930   86.8807   10.2832 C.3     1  UNL1        0.0307
      9 C          61.6950   85.5306   10.9051 C.2     1  UNL1       -0.0258
     10 C          62.5316   85.3925   12.1425 C.2     1  UNL1       -0.0045
     11 O          66.9729   93.8757   16.4508 O.3     1  UNL1       -0.5029
     12 C          66.3385   92.6638   15.8353 C.ar    1  UNL1        0.1675
     13 C          67.1000   91.8444   14.8359 C.ar    1  UNL1        0.0398
     14 C          66.4655   90.6325   14.2205 C.ar    1  UNL1        0.0033
     15 C          65.0696   90.2400   14.6044 C.ar    1  UNL1        0.0032
     16 C          64.3081   91.0595   15.6037 C.ar    1  UNL1        0.0398
     17 C          64.9425   92.2713   16.2192 C.ar    1  UNL1        0.1675
     18 O          64.1811   93.0907   17.2186 O.3     1  UNL1       -0.5029
     19 H          67.8449   94.1208   16.2109 H       1  UNL1        0.2923
     20 H          63.3091   92.8456   17.4584 H       1  UNL1        0.2923
     21 C          62.7336   84.0426   12.7644 C.ar    1  UNL1        0.0028
     22 C          62.0632   83.7075   14.0638 C.ar    1  UNL1        0.0207
     23 C          62.2653   82.3575   14.6857 C.ar    1  UNL1        0.0989
     24 N          63.1378   81.3427   14.0083 N.ar    1  UNL1       -0.2423
     25 C          63.8081   81.6778   12.7089 C.ar    1  UNL1        0.0989
     26 C          63.6061   83.0277   12.0870 C.ar    1  UNL1        0.0207
@<TRIPOS>BOND
     1    11    12    1
     2    12    13   ar
     3    13    14   ar
     4    14    15   ar
     5    15     1    1
     6     1     2   ar
     7     2     3   ar
     8     3     4   ar
     9     4     5   ar
    10     5     6   ar
    11     5     7    1
    12     7     8    1
    13     8     9    1
    14     9    10    2
    15    10    21    1
    16    21    22   ar
    17    22    23   ar
    18    23    24   ar
    19    24    25   ar
    20    25    26   ar
    21    15    16   ar
    22    16    17   ar
    23    17    18    1
    24    17    12   ar
    25     6     1   ar
    26    26    21   ar
    27    10     4    1
    28    11    19    1
    29    18    20    1
@<TRIPOS>MOLECULE
*****
 26 29 0 0 0
SMALL
GASTEIGER

@<TRIPOS>ATOM
      1 C          64.1961   89.8059   13.3350 C.ar    1  UNL1       -0.0002
      2 C          63.3815   90.2544   12.1581 C.ar    1  UNL1       -0.0000
      3 C          62.5899   89.2542   11.3690 C.ar    1  UNL1       -0.0003
      4 C          62.6128   87.8054   11.7568 C.ar    1  UNL1       -0.0043
      5 C          63.4273   87.3568   12.9338 C.ar    1  UNL1       -0.0218
      6 C          64.2190   88.3570   13.7229 C.ar    1  UNL1       -0.0043
      7 C          63.4502   85.9080   13.3216 C.3     1  UNL1        0.0310
      8 C          62.6586   84.9077   12.5325 C.3     1  UNL1        0.0307
      9 C          61.8439   85.3563   11.3555 C.2     1  UNL1       -0.0258
     10 C          61.8210   86.8051   10.9676 C.2     1  UNL1       -0.0045
     11 O          67.3628   93.8068   16.4918 O.3     1  UNL1       -0.5029
     12 C          66.5712   92.8066   15.7026 C.ar    1  UNL1        0.1675
     13 C          67.0799   92.3259   14.3759 C.ar    1  UNL1        0.0398
     14 C          66.2882   91.3256   13.5867 C.ar    1  UNL1        0.0033
     15 C          64.9878   90.8061   14.1242 C.ar    1  UNL1        0.0032
     16 C          64.4790   91.2868   15.4509 C.ar    1  UNL1        0.0398
     17 C          65.2707   92.2870   16.2401 C.ar    1  UNL1        0.1675
     18 O          64.7619   92.7677   17.5668 O.3     1  UNL1       -0.5029
     19 H          68.1751   94.1313   16.1560 H       1  UNL1        0.2923
     20 H          63.9495   92.4432   17.9025 H       1  UNL1        0.2923
     21 C          61.0065   87.2537    9.7907 C.ar    1  UNL1        0.0028
     22 C          60.7014   88.7100    9.6010 C.ar    1  UNL1        0.0207
     23 C          59.8868   89.1586    8.4240 C.ar    1  UNL1        0.0989
     24 N          59.3773   88.1508    7.4367 N.ar    1  UNL1       -0.2423
     25 C          59.6824   86.6945    7.6264 C.ar    1  UNL1        0.0989
     26 C          60.4970   86.2459    8.8033 C.ar    1  UNL1        0.0207
@<TRIPOS>BOND
     1    11    12    1
     2    12    13   ar
     3    13    14   ar
     4    14    15   ar
     5    15     1    1
     6     1     2   ar
     7     2     3   ar
     8     3     4   ar
     9     4     5   ar
    10     5     6   ar
    11     5     7    1
    12     7     8    1
    13     8     9    1
    14     9    10    2
    15    10    21    1
    16    21    22   ar
    17    22    23   ar
    18    23    24   ar
    19    24    25   ar
    20    25    26   ar
    21    15    16   ar
    22    16    17   ar
    23    17    18    1
    24    17    12   ar
    25     6     1   ar
    26    26    21   ar
    27    10     4    1
    28    11    19    1
    29    18    20    1
@<TRIPOS>MOLECULE
*****
 26 29 0 0 0
SMALL
GASTEIGER

@<TRIPOS>ATOM
      1 C          63.1940   84.5572   13.9166 C.ar    1  UNL1       -0.0002
      2 C          63.6271   85.6366   12.9694 C.ar    1  UNL1       -0.0000
      3 C          63.7947   87.0436   13.4617 C.ar    1  UNL1       -0.0003
      4 C          63.5291   87.3711   14.9012 C.ar    1  UNL1       -0.0043
      5 C          63.0959   86.2917   15.8484 C.ar    1  UNL1       -0.0218
      6 C          62.9284   84.8848   15.3561 C.ar    1  UNL1       -0.0043
      7 C          62.8304   86.6193   17.2879 C.3     1  UNL1        0.0310
      8 C          62.9979   88.0263   17.7802 C.3     1  UNL1        0.0307
      9 C          63.4311   89.1057   16.8329 C.2     1  UNL1       -0.0258
     10 C          63.6966   88.7782   15.3934 C.2     1  UNL1       -0.0045
     11 O          62.5238   78.9293   11.9476 O.3     1  UNL1       -0.5029
     12 C          62.6913   80.3362   12.4399 C.ar    1  UNL1        0.1675
     13 C          62.4269   80.6635   13.8796 C.ar    1  UNL1        0.0398
     14 C          62.5944   82.0706   14.3719 C.ar    1  UNL1        0.0033
     15 C          63.0264   83.1502   13.4244 C.ar    1  UNL1        0.0032
     16 C          63.2909   82.8228   11.9846 C.ar    1  UNL1        0.0398
     17 C          63.1233   81.4159   11.4924 C.ar    1  UNL1        0.1675
     18 O          63.3878   81.0886   10.0526 O.3     1  UNL1       -0.5029
     19 H          62.2539   78.2548   12.5395 H       1  UNL1        0.2923
     20 H          63.6576   81.7630    9.4607 H       1  UNL1        0.2923
     21 C          64.1298   89.8575   14.4462 C.ar    1  UNL1        0.0028
     22 C          65.3906   90.6259   14.7106 C.ar    1  UNL1        0.0207
     23 C          65.8237   91.7054   13.7633 C.ar    1  UNL1        0.0989
     24 N          64.9960   92.0164   12.5517 N.ar    1  UNL1       -0.2423
     25 C          63.7352   91.2480   12.2872 C.ar    1  UNL1        0.0989
     26 C          63.3021   90.1686   13.2345 C.ar    1  UNL1        0.0207
@<TRIPOS>BOND
     1    11    12    1
     2    12    13   ar
     3    13    14   ar
     4    14    15   ar
     5    15     1    1
     6     1     2   ar
     7     2     3   ar
     8     3     4   ar
     9     4     5   ar
    10     5     6   ar
    11     5     7    1
    12     7     8    1
    13     8     9    1
    14     9    10    2
    15    10    21    1
    16    21    22   ar
    17    22    23   ar
    18    23    24   ar
    19    24    25   ar
    20    25    26   ar
    21    15    16   ar
    22    16    17   ar
    23    17    18    1
    24    17    12   ar
    25     6     1   ar
    26    26    21   ar
    27    10     4    1
    28    11    19    1
    29    18    20    1
