@<TRIPOS>MOLECULE
*****
 34 37 0 0 0
SMALL
GASTEIGER

@<TRIPOS>ATOM
      1 C          64.2127   90.5387   12.8544 C.ar    1  UNL1        0.0240
      2 C          64.1472   89.2173   13.5613 C.ar    1  UNL1        0.0204
      3 C          63.3080   88.1076   13.0007 C.ar    1  UNL1        0.0787
      4 N          62.5342   88.3194   11.7333 N.ar    1  UNL1       -0.2897
      5 C          62.5996   89.6408   11.0265 C.ar    1  UNL1        0.2613
      6 O          61.8258   89.8525    9.7590 O.2     1  UNL1       -0.2670
      7 C          63.4389   90.7504   11.5870 C.ar    1  UNL1        0.0623
      8 C          66.1968   93.9641   13.1377 C.ar    1  UNL1        0.2207
      9 N          66.7307   93.8676   14.5362 N.ar    1  UNL1       -0.2120
     10 C          66.4253   92.6615   15.3741 C.ar    1  UNL1        0.1034
     11 C          65.5859   91.5519   14.8135 C.ar    1  UNL1        0.0399
     12 C          65.0521   91.6483   13.4151 C.ar    1  UNL1        0.0859
     13 N          65.3575   92.8544   12.5772 N.ar    1  UNL1       -0.2135
     14 N          66.5022   95.1702   12.2998 N.pl3   1  UNL1       -0.2825
     15 H          66.4697   96.0689   12.7004 H       1  UNL1        0.1551
     16 C          68.6722   92.3894    8.4843 C.3     1  UNL1        0.0521
     17 C          67.9422   93.6165    8.9438 C.ar    1  UNL1        0.0606
     18 C          67.5872   93.7798   10.3920 C.ar    1  UNL1        0.0294
     19 C          66.8571   95.0069   10.8516 C.ar    1  UNL1        0.0532
     20 C          66.4820   96.0708    9.8629 C.ar    1  UNL1        0.0353
     21 C          66.8370   95.9075    8.4147 C.ar    1  UNL1        0.0997
     22 N          67.5670   94.6804    7.9552 N.ar    1  UNL1       -0.2481
     23 C          61.6948   87.2097   11.1727 C.3     1  UNL1        0.1402
     24 C          62.3034   85.8616   10.9232 C.ar    1  UNL1        0.0030
     25 C          62.7786   85.4962    9.5481 C.ar    1  UNL1       -0.0014
     26 C          63.3872   84.1481    9.2986 C.ar    1  UNL1        0.0134
     27 C          63.5206   83.1655   10.4241 C.ar    1  UNL1        0.0850
     28 CL         64.1292   81.8174   10.1745 Cl      1  UNL1       -0.0799
     29 C          63.0455   83.5310   11.7991 C.ar    1  UNL1        0.1503
     30 F          63.1789   82.5484   12.9245 F       1  UNL1       -0.2033
     31 C          62.4369   84.8790   12.0486 C.ar    1  UNL1        0.0281
     32 C          60.2470   87.4482   10.8617 C.3     1  UNL1        0.1642
     33 O          59.3955   88.2362   11.8125 O.3     1  UNL1       -0.3797
     34 H          59.3043   87.7479   12.6456 H       1  UNL1        0.2105
@<TRIPOS>BOND
     1    16    17    1
     2    17    18   ar
     3    18    19   ar
     4    19    14    1
     5    14     8    1
     6     8     9   ar
     7     9    10   ar
     8    10    11   ar
     9    11    12   ar
    10    12     1    1
    11     1     2   ar
    12     2     3   ar
    13     3     4   ar
    14     4    23    1
    15    23    32    1
    16    32    33    1
    17    23    24    1
    18    24    25   ar
    19    25    26   ar
    20    26    27   ar
    21    27    28    1
    22    27    29   ar
    23    29    30    1
    24    29    31   ar
    25     4     5   ar
    26     5     6    2
    27     5     7   ar
    28    12    13   ar
    29    19    20   ar
    30    20    21   ar
    31    21    22   ar
    32    22    17   ar
    33    13     8   ar
    34     7     1   ar
    35    31    24   ar
    36    14    15    1
    37    33    34    1
@<TRIPOS>MOLECULE
*****
 34 37 0 0 0
SMALL
GASTEIGER

@<TRIPOS>ATOM
      1 C          63.1321   89.7065   11.4339 C.ar    1  UNL1        0.0240
      2 C          63.3560   90.8102   10.4431 C.ar    1  UNL1        0.0204
      3 C          64.2528   91.9607   10.7919 C.ar    1  UNL1        0.0787
      4 N          64.9257   92.0077   12.1317 N.ar    1  UNL1       -0.2897
      5 C          64.7018   90.9040   13.1225 C.ar    1  UNL1        0.2613
      6 O          65.3748   90.9510   14.4623 O.2     1  UNL1       -0.2670
      7 C          63.8050   89.7534   12.7737 C.ar    1  UNL1        0.0623
      8 C          61.8639   86.0014   10.7906 C.ar    1  UNL1        0.2207
      9 N          60.4415   86.2546   10.3871 N.ar    1  UNL1       -0.2120
     10 C          59.9159   87.6585   10.3326 C.ar    1  UNL1        0.1034
     11 C          60.8128   88.8091   10.6816 C.ar    1  UNL1        0.0399
     12 C          62.2352   88.5558   11.0850 C.ar    1  UNL1        0.0859
     13 N          62.7607   87.1520   11.1395 N.ar    1  UNL1       -0.2135
     14 N          62.3894   84.5975   10.8451 N.pl3   1  UNL1       -0.2825
     15 H          62.6043   84.1196   10.0116 H       1  UNL1        0.1551
     16 C          62.3543   80.2879   13.7479 C.3     1  UNL1        0.0521
     17 C          62.5698   81.7669   13.6209 C.ar    1  UNL1        0.0606
     18 C          62.3719   82.4427   12.2965 C.ar    1  UNL1        0.0294
     19 C          62.5874   83.9217   12.1696 C.ar    1  UNL1        0.0532
     20 C          63.0009   84.7249   13.3670 C.ar    1  UNL1        0.0353
     21 C          63.1989   84.0490   14.6913 C.ar    1  UNL1        0.0997
     22 N          62.9834   82.5700   14.8183 N.ar    1  UNL1       -0.2481
     23 C          65.8226   93.1583   12.4806 C.3     1  UNL1        0.1402
     24 C          66.3131   94.0803   11.4038 C.ar    1  UNL1        0.0030
     25 C          66.1477   95.5636   11.5538 C.ar    1  UNL1       -0.0014
     26 C          66.6382   96.4856   10.4770 C.ar    1  UNL1        0.0134
     27 C          67.2941   95.9241    9.2503 C.ar    1  UNL1        0.0850
     28 CL         67.7845   96.8461    8.1735 Cl      1  UNL1       -0.0799
     29 C          67.4594   94.4409    9.1004 C.ar    1  UNL1        0.1503
     30 F          68.1153   93.8795    7.8737 F       1  UNL1       -0.2033
     31 C          66.9690   93.5189   10.1772 C.ar    1  UNL1        0.0281
     32 C          66.2290   93.3870   13.9063 C.3     1  UNL1        0.1642
     33 O          67.6822   93.4807   14.2661 O.3     1  UNL1       -0.3797
     34 H          68.1096   92.6240   14.1108 H       1  UNL1        0.2105
@<TRIPOS>BOND
     1    16    17    1
     2    17    18   ar
     3    18    19   ar
     4    19    14    1
     5    14     8    1
     6     8     9   ar
     7     9    10   ar
     8    10    11   ar
     9    11    12   ar
    10    12     1    1
    11     1     2   ar
    12     2     3   ar
    13     3     4   ar
    14     4    23    1
    15    23    32    1
    16    32    33    1
    17    23    24    1
    18    24    25   ar
    19    25    26   ar
    20    26    27   ar
    21    27    28    1
    22    27    29   ar
    23    29    30    1
    24    29    31   ar
    25     4     5   ar
    26     5     6    2
    27     5     7   ar
    28    12    13   ar
    29    19    20   ar
    30    20    21   ar
    31    21    22   ar
    32    22    17   ar
    33    13     8   ar
    34     7     1   ar
    35    31    24   ar
    36    14    15    1
    37    33    34    1
@<TRIPOS>MOLECULE
*****
 34 37 0 0 0
SMALL
GASTEIGER

@<TRIPOS>ATOM
      1 C          63.8522   90.6143   12.5881 C.ar    1  UNL1        0.0240
      2 C          63.7313   89.2028   13.0812 C.ar    1  UNL1        0.0204
      3 C          62.6691   88.3021   12.5241 C.ar    1  UNL1        0.0787
      4 N          61.7278   88.8128   11.4739 N.ar    1  UNL1       -0.2897
      5 C          61.8487   90.2243   10.9808 C.ar    1  UNL1        0.2613
      6 O          60.9073   90.7351    9.9305 O.2     1  UNL1       -0.2670
      7 C          62.9108   91.1250   11.5379 C.ar    1  UNL1        0.0623
      8 C          66.1926   93.7766   13.1097 C.ar    1  UNL1        0.2207
      9 N          67.0389   93.3165   14.2596 N.ar    1  UNL1       -0.2120
     10 C          66.8228   91.9556   14.8523 C.ar    1  UNL1        0.1034
     11 C          65.7606   91.0549   14.2951 C.ar    1  UNL1        0.0399
     12 C          64.9144   91.5150   13.1453 C.ar    1  UNL1        0.0859
     13 N          65.1304   92.8759   12.5525 N.ar    1  UNL1       -0.2135
     14 N          66.4086   95.1375   12.5169 N.pl3   1  UNL1       -0.2825
     15 H          66.2919   95.9411   13.0736 H       1  UNL1        0.1551
     16 C          68.4282   93.0877    8.1903 C.3     1  UNL1        0.0521
     17 C          67.8123   94.2491    8.9127 C.ar    1  UNL1        0.0606
     18 C          67.4184   94.1126   10.3535 C.ar    1  UNL1        0.0294
     19 C          66.8026   95.2740   11.0760 C.ar    1  UNL1        0.0532
     20 C          66.5807   96.5719   10.3575 C.ar    1  UNL1        0.0353
     21 C          66.9746   96.7084    8.9167 C.ar    1  UNL1        0.0997
     22 N          67.5904   95.5470    8.1942 N.ar    1  UNL1       -0.2481
     23 C          60.6655   87.9121   10.9167 C.3     1  UNL1        0.1402
     24 C          60.9646   87.0443    9.7303 C.ar    1  UNL1        0.0030
     25 C          59.9850   86.9590    8.5975 C.ar    1  UNL1       -0.0014
     26 C          60.2840   86.0913    7.4111 C.ar    1  UNL1        0.0134
     27 C          61.5627   85.3088    7.3575 C.ar    1  UNL1        0.0850
     28 CL         61.8618   84.4410    6.1711 Cl      1  UNL1       -0.0799
     29 C          62.5422   85.3941    8.4902 C.ar    1  UNL1        0.1503
     30 F          63.8208   84.6117    8.4366 F       1  UNL1       -0.2033
     31 C          62.2432   86.2619    9.6766 C.ar    1  UNL1        0.0281
     32 C          59.3043   87.8792   11.5459 C.3     1  UNL1        0.1642
     33 O          59.0428   88.6464   12.8080 O.3     1  UNL1       -0.3797
     34 H          59.5653   88.2665   13.5315 H       1  UNL1        0.2105
@<TRIPOS>BOND
     1    16    17    1
     2    17    18   ar
     3    18    19   ar
     4    19    14    1
     5    14     8    1
     6     8     9   ar
     7     9    10   ar
     8    10    11   ar
     9    11    12   ar
    10    12     1    1
    11     1     2   ar
    12     2     3   ar
    13     3     4   ar
    14     4    23    1
    15    23    32    1
    16    32    33    1
    17    23    24    1
    18    24    25   ar
    19    25    26   ar
    20    26    27   ar
    21    27    28    1
    22    27    29   ar
    23    29    30    1
    24    29    31   ar
    25     4     5   ar
    26     5     6    2
    27     5     7   ar
    28    12    13   ar
    29    19    20   ar
    30    20    21   ar
    31    21    22   ar
    32    22    17   ar
    33    13     8   ar
    34     7     1   ar
    35    31    24   ar
    36    14    15    1
    37    33    34    1
@<TRIPOS>MOLECULE
*****
 34 37 0 0 0
SMALL
GASTEIGER

@<TRIPOS>ATOM
      1 C          63.9452   89.1036   13.6257 C.ar    1  UNL1        0.0240
      2 C          64.2175   87.7311   14.1660 C.ar    1  UNL1        0.0204
      3 C          63.7189   86.5228   13.4301 C.ar    1  UNL1        0.0787
      4 N          62.9480   86.6872   12.1539 N.ar    1  UNL1       -0.2897
      5 C          62.6757   88.0597   11.6136 C.ar    1  UNL1        0.2613
      6 O          61.9048   88.2240   10.3374 O.2     1  UNL1       -0.2670
      7 C          63.1743   89.2680   12.3495 C.ar    1  UNL1        0.0623
      8 C          65.9585   92.4205   14.4595 C.ar    1  UNL1        0.2207
      9 N          65.4411   92.7283   15.8334 N.ar    1  UNL1       -0.2120
     10 C          64.4251   91.8279   16.4714 C.ar    1  UNL1        0.1034
     11 C          63.9265   90.6197   15.7355 C.ar    1  UNL1        0.0399
     12 C          64.4438   90.3119   14.3616 C.ar    1  UNL1        0.0859
     13 N          65.4598   91.2123   13.7236 N.ar    1  UNL1       -0.2135
     14 N          66.9745   93.3209   13.8215 N.pl3   1  UNL1       -0.2825
     15 H          67.6676   93.7500   14.3735 H       1  UNL1        0.1551
     16 C          68.3970   92.0056    9.0000 C.3     1  UNL1        0.0521
     17 C          67.6457   92.9098    9.9317 C.ar    1  UNL1        0.0606
     18 C          67.6857   92.6633   11.4107 C.ar    1  UNL1        0.0294
     19 C          66.9344   93.5674   12.3424 C.ar    1  UNL1        0.0532
     20 C          66.1431   94.7181   11.7950 C.ar    1  UNL1        0.0353
     21 C          66.1031   94.9647   10.3160 C.ar    1  UNL1        0.0997
     22 N          66.8544   94.0605    9.3843 N.ar    1  UNL1       -0.2481
     23 C          62.4493   85.4789   11.4180 C.3     1  UNL1        0.1402
     24 C          62.5337   84.1242   12.0564 C.ar    1  UNL1        0.0030
     25 C          62.4282   83.9894   13.5466 C.ar    1  UNL1       -0.0014
     26 C          62.5126   82.6346   14.1850 C.ar    1  UNL1        0.0134
     27 C          62.7026   81.4146   13.3331 C.ar    1  UNL1        0.0850
     28 CL         62.7870   80.0599   13.9715 Cl      1  UNL1       -0.0799
     29 C          62.8081   81.5495   11.8429 C.ar    1  UNL1        0.1503
     30 F          62.9981   80.3295   10.9911 F       1  UNL1       -0.2033
     31 C          62.7237   82.9042   11.2046 C.ar    1  UNL1        0.0281
     32 C          61.8663   85.6254   10.0438 C.3     1  UNL1        0.1642
     33 O          62.7717   85.7483    8.8542 O.3     1  UNL1       -0.3797
     34 H          63.2674   86.5802    8.9098 H       1  UNL1        0.2105
@<TRIPOS>BOND
     1    16    17    1
     2    17    18   ar
     3    18    19   ar
     4    19    14    1
     5    14     8    1
     6     8     9   ar
     7     9    10   ar
     8    10    11   ar
     9    11    12   ar
    10    12     1    1
    11     1     2   ar
    12     2     3   ar
    13     3     4   ar
    14     4    23    1
    15    23    32    1
    16    32    33    1
    17    23    24    1
    18    24    25   ar
    19    25    26   ar
    20    26    27   ar
    21    27    28    1
    22    27    29   ar
    23    29    30    1
    24    29    31   ar
    25     4     5   ar
    26     5     6    2
    27     5     7   ar
    28    12    13   ar
    29    19    20   ar
    30    20    21   ar
    31    21    22   ar
    32    22    17   ar
    33    13     8   ar
    34     7     1   ar
    35    31    24   ar
    36    14    15    1
    37    33    34    1
@<TRIPOS>MOLECULE
*****
 34 37 0 0 0
SMALL
GASTEIGER

@<TRIPOS>ATOM
      1 C          64.1142   89.0435   13.9507 C.ar    1  UNL1        0.0240
      2 C          63.3462   89.0850   12.6629 C.ar    1  UNL1        0.0204
      3 C          62.8914   87.8087   12.0194 C.ar    1  UNL1        0.0787
      4 N          63.2046   86.4909   12.6637 N.ar    1  UNL1       -0.2897
      5 C          63.9725   86.4493   13.9515 C.ar    1  UNL1        0.2613
      6 O          64.2857   85.1314   14.5958 O.2     1  UNL1       -0.2670
      7 C          64.4274   87.7256   14.5951 C.ar    1  UNL1        0.0623
      8 C          66.0394   92.4614   14.5520 C.ar    1  UNL1        0.2207
      9 N          65.4787   92.8726   15.8812 N.ar    1  UNL1       -0.2120
     10 C          64.4633   92.0073   16.5669 C.ar    1  UNL1        0.1034
     11 C          64.0085   90.7309   15.9234 C.ar    1  UNL1        0.0399
     12 C          64.5691   90.3199   14.5943 C.ar    1  UNL1        0.0859
     13 N          65.5845   91.1851   13.9085 N.ar    1  UNL1       -0.2135
     14 N          67.0548   93.3267   13.8662 N.pl3   1  UNL1       -0.2825
     15 H          67.7749   93.7488   14.3883 H       1  UNL1        0.1551
     16 C          68.3470   91.9357    9.0294 C.3     1  UNL1        0.0521
     17 C          67.6193   92.8533    9.9666 C.ar    1  UNL1        0.0606
     18 C          67.7009   92.6312   11.4478 C.ar    1  UNL1        0.0294
     19 C          66.9731   93.5488   12.3850 C.ar    1  UNL1        0.0532
     20 C          66.1637   94.6885   11.8410 C.ar    1  UNL1        0.0353
     21 C          66.0821   94.9106   10.3598 C.ar    1  UNL1        0.0997
     22 N          66.8099   93.9930    9.4226 N.ar    1  UNL1       -0.2481
     23 C          62.7497   85.2145   12.0202 C.3     1  UNL1        0.1402
     24 C          62.4678   85.1761   10.5474 C.ar    1  UNL1        0.0030
     25 C          63.4241   84.4885    9.6185 C.ar    1  UNL1       -0.0014
     26 C          63.1422   84.4501    8.1457 C.ar    1  UNL1        0.0134
     27 C          61.9040   85.0992    7.6019 C.ar    1  UNL1        0.0850
     28 CL         61.6221   85.0608    6.1291 Cl      1  UNL1       -0.0799
     29 C          60.9478   85.7867    8.5308 C.ar    1  UNL1        0.1503
     30 F          59.7098   86.4358    7.9870 F       1  UNL1       -0.2033
     31 C          61.2297   85.8252   10.0036 C.ar    1  UNL1        0.0281
     32 C          62.5768   83.9766   12.8495 C.3     1  UNL1        0.1642
     33 O          63.6704   82.9514   12.9037 O.3     1  UNL1       -0.3797
     34 H          63.7780   82.5469   12.0286 H       1  UNL1        0.2105
@<TRIPOS>BOND
     1    16    17    1
     2    17    18   ar
     3    18    19   ar
     4    19    14    1
     5    14     8    1
     6     8     9   ar
     7     9    10   ar
     8    10    11   ar
     9    11    12   ar
    10    12     1    1
    11     1     2   ar
    12     2     3   ar
    13     3     4   ar
    14     4    23    1
    15    23    32    1
    16    32    33    1
    17    23    24    1
    18    24    25   ar
    19    25    26   ar
    20    26    27   ar
    21    27    28    1
    22    27    29   ar
    23    29    30    1
    24    29    31   ar
    25     4     5   ar
    26     5     6    2
    27     5     7   ar
    28    12    13   ar
    29    19    20   ar
    30    20    21   ar
    31    21    22   ar
    32    22    17   ar
    33    13     8   ar
    34     7     1   ar
    35    31    24   ar
    36    14    15    1
    37    33    34    1
@<TRIPOS>MOLECULE
*****
 34 37 0 0 0
SMALL
GASTEIGER

@<TRIPOS>ATOM
      1 C          62.3941   89.5162   11.2289 C.ar    1  UNL1        0.0240
      2 C          61.3283   90.5067   10.8642 C.ar    1  UNL1        0.0204
      3 C          60.3789   90.2078    9.7422 C.ar    1  UNL1        0.0787
      4 N          60.4952   88.9183    8.9848 N.ar    1  UNL1       -0.2897
      5 C          61.5610   87.9278    9.3495 C.ar    1  UNL1        0.2613
      6 O          61.6773   86.6382    8.5921 O.2     1  UNL1       -0.2670
      7 C          62.5104   88.2268   10.4716 C.ar    1  UNL1        0.0623
      8 C          65.0412   91.4143   13.4963 C.ar    1  UNL1        0.2207
      9 N          65.2425   90.4134   14.5953 N.ar    1  UNL1       -0.2120
     10 C          64.4944   89.1135   14.5722 C.ar    1  UNL1        0.1034
     11 C          63.5449   88.8144   13.4500 C.ar    1  UNL1        0.0399
     12 C          63.3436   89.8153   12.3511 C.ar    1  UNL1        0.0859
     13 N          64.0917   91.1152   12.3742 N.ar    1  UNL1       -0.2135
     14 N          65.7893   92.7142   13.5194 N.pl3   1  UNL1       -0.2825
     15 H          65.9023   93.2021   14.3670 H       1  UNL1        0.1551
     16 C          66.6505   96.7470   10.3580 C.3     1  UNL1        0.0521
     17 C          66.7958   95.2871   10.6704 C.ar    1  UNL1        0.0606
     18 C          66.2200   94.7306   11.9386 C.ar    1  UNL1        0.0294
     19 C          66.3653   93.2707   12.2510 C.ar    1  UNL1        0.0532
     20 C          67.0864   92.3673   11.2951 C.ar    1  UNL1        0.0353
     21 C          67.6623   92.9239   10.0269 C.ar    1  UNL1        0.0997
     22 N          67.5170   94.3838    9.7145 N.ar    1  UNL1       -0.2481
     23 C          59.5457   88.6192    7.8627 C.3     1  UNL1        0.1402
     24 C          59.4006   89.5863    6.7252 C.ar    1  UNL1        0.0030
     25 C          60.6162   90.0644    5.9876 C.ar    1  UNL1       -0.0014
     26 C          60.4711   91.0314    4.8501 C.ar    1  UNL1        0.0134
     27 C          59.1105   91.5203    4.4502 C.ar    1  UNL1        0.0850
     28 CL         58.9654   92.4873    3.3127 Cl      1  UNL1       -0.0799
     29 C          57.8950   91.0421    5.1878 C.ar    1  UNL1        0.1503
     30 F          56.5345   91.5310    4.7879 F       1  UNL1       -0.2033
     31 C          58.0401   90.0751    6.3253 C.ar    1  UNL1        0.0281
     32 C          58.7414   87.3533    7.8780 C.3     1  UNL1        0.1642
     33 O          59.3364   86.0803    7.3532 O.3     1  UNL1       -0.3797
     34 H          59.4891   86.1641    6.3990 H       1  UNL1        0.2105
@<TRIPOS>BOND
     1    16    17    1
     2    17    18   ar
     3    18    19   ar
     4    19    14    1
     5    14     8    1
     6     8     9   ar
     7     9    10   ar
     8    10    11   ar
     9    11    12   ar
    10    12     1    1
    11     1     2   ar
    12     2     3   ar
    13     3     4   ar
    14     4    23    1
    15    23    32    1
    16    32    33    1
    17    23    24    1
    18    24    25   ar
    19    25    26   ar
    20    26    27   ar
    21    27    28    1
    22    27    29   ar
    23    29    30    1
    24    29    31   ar
    25     4     5   ar
    26     5     6    2
    27     5     7   ar
    28    12    13   ar
    29    19    20   ar
    30    20    21   ar
    31    21    22   ar
    32    22    17   ar
    33    13     8   ar
    34     7     1   ar
    35    31    24   ar
    36    14    15    1
    37    33    34    1
@<TRIPOS>MOLECULE
*****
 34 37 0 0 0
SMALL
GASTEIGER

@<TRIPOS>ATOM
      1 C          62.1226   88.9172   11.0972 C.ar    1  UNL1        0.0240
      2 C          61.1908   90.0367   10.7385 C.ar    1  UNL1        0.0204
      3 C          60.3162   89.9248    9.5250 C.ar    1  UNL1        0.0787
      4 N          60.3734   88.6935    8.6703 N.ar    1  UNL1       -0.2897
      5 C          61.3052   87.5741    9.0290 C.ar    1  UNL1        0.2613
      6 O          61.3624   86.3427    8.1742 O.2     1  UNL1       -0.2670
      7 C          62.1798   87.6860   10.2425 C.ar    1  UNL1        0.0623
      8 C          64.3105   87.9034   14.2492 C.ar    1  UNL1        0.2207
      9 N          64.7464   89.2530   14.7378 N.ar    1  UNL1       -0.2120
     10 C          64.3076   90.4907   14.0127 C.ar    1  UNL1        0.1034
     11 C          63.4330   90.3788   12.7992 C.ar    1  UNL1        0.0399
     12 C          62.9972   89.0292   12.3107 C.ar    1  UNL1        0.0859
     13 N          63.4359   87.7915   13.0357 N.ar    1  UNL1       -0.2135
     14 N          64.7492   86.6657   14.9742 N.pl3   1  UNL1       -0.2825
     15 H          65.4773   86.7143   15.6351 H       1  UNL1        0.1551
     16 C          64.2686   82.3930   12.0565 C.3     1  UNL1        0.0521
     17 C          63.8383   83.2175   13.2333 C.ar    1  UNL1        0.0606
     18 C          64.5089   84.5293   13.5154 C.ar    1  UNL1        0.0294
     19 C          64.0786   85.3538   14.6922 C.ar    1  UNL1        0.0532
     20 C          62.9778   84.8666   15.5871 C.ar    1  UNL1        0.0353
     21 C          62.3073   83.5548   15.3051 C.ar    1  UNL1        0.0997
     22 N          62.7375   82.7303   14.1282 N.ar    1  UNL1       -0.2481
     23 C          59.4988   88.5815    7.4567 C.3     1  UNL1        0.1402
     24 C          59.4782   89.6866    6.4426 C.ar    1  UNL1        0.0030
     25 C          60.7519   90.1188    5.7784 C.ar    1  UNL1       -0.0014
     26 C          60.7313   91.2238    4.7643 C.ar    1  UNL1        0.0134
     27 C          59.4371   91.8966    4.4143 C.ar    1  UNL1        0.0850
     28 CL         59.4165   93.0017    3.4002 Cl      1  UNL1       -0.0799
     29 C          58.1635   91.4644    5.0785 C.ar    1  UNL1        0.1503
     30 F          56.8694   92.1372    4.7285 F       1  UNL1       -0.2033
     31 C          58.1841   90.3594    6.0926 C.ar    1  UNL1        0.0281
     32 C          58.6448   87.3646    7.2574 C.3     1  UNL1        0.1642
     33 O          58.3152   86.4805    8.4234 O.3     1  UNL1       -0.3797
     34 H          59.1258   86.0585    8.7485 H       1  UNL1        0.2105
@<TRIPOS>BOND
     1    16    17    1
     2    17    18   ar
     3    18    19   ar
     4    19    14    1
     5    14     8    1
     6     8     9   ar
     7     9    10   ar
     8    10    11   ar
     9    11    12   ar
    10    12     1    1
    11     1     2   ar
    12     2     3   ar
    13     3     4   ar
    14     4    23    1
    15    23    32    1
    16    32    33    1
    17    23    24    1
    18    24    25   ar
    19    25    26   ar
    20    26    27   ar
    21    27    28    1
    22    27    29   ar
    23    29    30    1
    24    29    31   ar
    25     4     5   ar
    26     5     6    2
    27     5     7   ar
    28    12    13   ar
    29    19    20   ar
    30    20    21   ar
    31    21    22   ar
    32    22    17   ar
    33    13     8   ar
    34     7     1   ar
    35    31    24   ar
    36    14    15    1
    37    33    34    1
@<TRIPOS>MOLECULE
*****
 34 37 0 0 0
SMALL
GASTEIGER

@<TRIPOS>ATOM
      1 C          63.0660   87.8528   12.2541 C.ar    1  UNL1        0.0240
      2 C          62.1699   86.7890   11.6926 C.ar    1  UNL1        0.0204
      3 C          62.0932   85.4459   12.3561 C.ar    1  UNL1        0.0787
      4 N          62.9127   85.1667   13.5810 N.ar    1  UNL1       -0.2897
      5 C          63.8088   86.2305   14.1425 C.ar    1  UNL1        0.2613
      6 O          64.6282   85.9512   15.3675 O.2     1  UNL1       -0.2670
      7 C          63.8855   87.5736   13.4790 C.ar    1  UNL1        0.0623
      8 C          64.0884   91.6144   11.5087 C.ar    1  UNL1        0.2207
      9 N          63.2960   91.8821   10.2635 N.ar    1  UNL1       -0.2120
     10 C          62.4271   90.8067    9.6817 C.ar    1  UNL1        0.1034
     11 C          62.3504   89.4636   10.3453 C.ar    1  UNL1        0.0399
     12 C          63.1427   89.1959   11.5905 C.ar    1  UNL1        0.0859
     13 N          64.0117   90.2713   12.1722 N.ar    1  UNL1       -0.2135
     14 N          64.9573   92.6898   12.0905 N.pl3   1  UNL1       -0.2825
     15 H          64.8579   92.9453   13.0360 H       1  UNL1        0.1551
     16 C          68.9988   92.4399    8.8341 C.3     1  UNL1        0.0521
     17 C          67.9986   93.2510    9.6033 C.ar    1  UNL1        0.0606
     18 C          66.9781   92.5649   10.4623 C.ar    1  UNL1        0.0294
     19 C          65.9778   93.3760   11.2315 C.ar    1  UNL1        0.0532
     20 C          65.9981   94.8731   11.1417 C.ar    1  UNL1        0.0353
     21 C          67.0186   95.5592   10.2828 C.ar    1  UNL1        0.0997
     22 N          68.0188   94.7481    9.5136 N.ar    1  UNL1       -0.2481
     23 C          62.8360   83.8236   14.2446 C.3     1  UNL1        0.1402
     24 C          62.8081   82.5762   13.4119 C.ar    1  UNL1        0.0030
     25 C          62.2670   81.3015   13.9886 C.ar    1  UNL1       -0.0014
     26 C          62.2391   80.0541   13.1560 C.ar    1  UNL1        0.0134
     27 C          62.7521   80.0815   11.7466 C.ar    1  UNL1        0.0850
     28 CL         62.7242   78.8341   10.9140 Cl      1  UNL1       -0.0799
     29 C          63.2931   81.3561   11.1700 C.ar    1  UNL1        0.1503
     30 F          63.8061   81.3834    9.7608 F       1  UNL1       -0.2033
     31 C          63.3210   82.6035   12.0027 C.ar    1  UNL1        0.0281
     32 C          62.7873   83.7279   15.7407 C.3     1  UNL1        0.1642
     33 O          62.1779   84.8385   16.5438 O.3     1  UNL1       -0.3797
     34 H          62.7175   85.6392   16.4498 H       1  UNL1        0.2105
@<TRIPOS>BOND
     1    16    17    1
     2    17    18   ar
     3    18    19   ar
     4    19    14    1
     5    14     8    1
     6     8     9   ar
     7     9    10   ar
     8    10    11   ar
     9    11    12   ar
    10    12     1    1
    11     1     2   ar
    12     2     3   ar
    13     3     4   ar
    14     4    23    1
    15    23    32    1
    16    32    33    1
    17    23    24    1
    18    24    25   ar
    19    25    26   ar
    20    26    27   ar
    21    27    28    1
    22    27    29   ar
    23    29    30    1
    24    29    31   ar
    25     4     5   ar
    26     5     6    2
    27     5     7   ar
    28    12    13   ar
    29    19    20   ar
    30    20    21   ar
    31    21    22   ar
    32    22    17   ar
    33    13     8   ar
    34     7     1   ar
    35    31    24   ar
    36    14    15    1
    37    33    34    1
@<TRIPOS>MOLECULE
*****
 34 37 0 0 0
SMALL
GASTEIGER

@<TRIPOS>ATOM
      1 C          63.1858   88.3331   12.3282 C.ar    1  UNL1        0.0240
      2 C          63.6604   87.8126   13.6525 C.ar    1  UNL1        0.0204
      3 C          64.1829   88.7633   14.6884 C.ar    1  UNL1        0.0787
      4 N          64.2308   90.2345   14.4000 N.ar    1  UNL1       -0.2897
      5 C          63.7562   90.7550   13.0757 C.ar    1  UNL1        0.2613
      6 O          63.8041   92.2263   12.7873 O.2     1  UNL1       -0.2670
      7 C          63.2337   89.8043   12.0398 C.ar    1  UNL1        0.0623
      8 C          62.4824   84.9732   10.3367 C.ar    1  UNL1        0.2207
      9 N          61.6183   85.4808    9.2204 N.ar    1  UNL1       -0.2120
     10 C          61.2768   86.9392    9.1402 C.ar    1  UNL1        0.1034
     11 C          61.7993   87.8899   10.1761 C.ar    1  UNL1        0.0399
     12 C          62.6633   87.3823   11.2922 C.ar    1  UNL1        0.0859
     13 N          63.0048   85.9239   11.3725 N.ar    1  UNL1       -0.2135
     14 N          62.8239   83.5148   10.4169 N.pl3   1  UNL1       -0.2825
     15 H          63.0658   83.0202    9.6008 H       1  UNL1        0.1551
     16 C          62.6397   83.6926   15.6068 C.3     1  UNL1        0.0521
     17 C          62.7047   82.8989   14.3357 C.ar    1  UNL1        0.0606
     18 C          62.7318   83.6037   13.0119 C.ar    1  UNL1        0.0294
     19 C          62.7968   82.8099   11.7408 C.ar    1  UNL1        0.0532
     20 C          62.8347   81.3113   11.7935 C.ar    1  UNL1        0.0353
     21 C          62.8076   80.6065   13.1173 C.ar    1  UNL1        0.0997
     22 N          62.7426   81.4003   14.3884 N.ar    1  UNL1       -0.2481
     23 C          64.7533   91.1852   15.4359 C.3     1  UNL1        0.1402
     24 C          66.1371   91.7494   15.3062 C.ar    1  UNL1        0.0030
     25 C          66.6686   92.6809   16.3549 C.ar    1  UNL1       -0.0014
     26 C          68.0524   93.2451   16.2252 C.ar    1  UNL1        0.0134
     27 C          68.9047   92.8776   15.0467 C.ar    1  UNL1        0.0850
     28 CL         70.2885   93.4418   14.9170 Cl      1  UNL1       -0.0799
     29 C          68.3731   91.9461   13.9981 C.ar    1  UNL1        0.1503
     30 F          69.2254   91.5788   12.8197 F       1  UNL1       -0.2033
     31 C          66.9893   91.3820   14.1278 C.ar    1  UNL1        0.0281
     32 C          63.8920   91.5718   16.6016 C.3     1  UNL1        0.1642
     33 O          63.5408   93.0122   16.8294 O.3     1  UNL1       -0.3797
     34 H          64.3438   93.5100   17.0488 H       1  UNL1        0.2105
@<TRIPOS>BOND
     1    16    17    1
     2    17    18   ar
     3    18    19   ar
     4    19    14    1
     5    14     8    1
     6     8     9   ar
     7     9    10   ar
     8    10    11   ar
     9    11    12   ar
    10    12     1    1
    11     1     2   ar
    12     2     3   ar
    13     3     4   ar
    14     4    23    1
    15    23    32    1
    16    32    33    1
    17    23    24    1
    18    24    25   ar
    19    25    26   ar
    20    26    27   ar
    21    27    28    1
    22    27    29   ar
    23    29    30    1
    24    29    31   ar
    25     4     5   ar
    26     5     6    2
    27     5     7   ar
    28    12    13   ar
    29    19    20   ar
    30    20    21   ar
    31    21    22   ar
    32    22    17   ar
    33    13     8   ar
    34     7     1   ar
    35    31    24   ar
    36    14    15    1
    37    33    34    1
