@<TRIPOS>MOLECULE
*****
 21 21 0 0 0
SMALL
GASTEIGER

@<TRIPOS>ATOM
      1 O          62.1148   86.1995    8.6368 O.3     1  UNL1       -0.4728
      2 C          63.6809   83.5421   11.9133 C.ar    1  UNL1       -0.0195
      3 C          64.0853   83.2956   10.4900 C.ar    1  UNL1       -0.0011
      4 C          63.5633   84.1814    9.3979 C.ar    1  UNL1        0.0366
      5 C          62.6368   85.3137    9.7290 C.ar    1  UNL1        0.1387
      6 C          62.2324   85.5601   11.1522 C.ar    1  UNL1        0.0366
      7 C          62.7545   84.6743   12.2444 C.ar    1  UNL1       -0.0011
      8 C          64.2030   82.6563   13.0055 C.3     1  UNL1        0.0584
      9 C          63.6734   81.2611   13.1571 C.3     1  UNL1        0.1469
     10 C          61.2694   81.1341   14.1343 C.3     1  UNL1        0.1741
     11 O          62.7473   80.9294   14.2895 O.3     1  UNL1       -0.3507
     12 C          60.7544   85.9514    8.0558 C.3     1  UNL1        0.2358
     13 C          59.6095   86.8510    8.4163 C.3     1  UNL1        0.1697
     14 O          58.2745   86.6666    7.7576 O.3     1  UNL1       -0.3793
     15 H          57.6507   87.3250    8.1012 H       1  UNL1        0.2106
     16 C          59.7995   87.9350    9.4355 C.3     1  UNL1        0.1020
     17 N          60.9089   88.9314    9.2727 N.3     1  UNL1       -0.2964
     18 H          60.7299   89.4316    8.4020 H       1  UNL1        0.1233
     19 C          61.1447   89.9705   10.3285 C.3     1  UNL1        0.0541
     20 C          62.5244   90.5162   10.5487 C.3     1  UNL1        0.0171
     21 C          60.0008   90.4638   11.1640 C.3     1  UNL1        0.0171
@<TRIPOS>BOND
     1    10    11    1
     2    11     9    1
     3     9     8    1
     4     8     2    1
     5     2     3   ar
     6     3     4   ar
     7     4     5   ar
     8     5     1    1
     9     1    12    1
    10    12    13    1
    11    13    14    1
    12    13    16    1
    13    16    17    1
    14    17    19    1
    15    19    20    1
    16    19    21    1
    17     5     6   ar
    18     6     7   ar
    19     7     2   ar
    20    14    15    1
    21    17    18    1
@<TRIPOS>MOLECULE
*****
 21 21 0 0 0
SMALL
GASTEIGER

@<TRIPOS>ATOM
      1 O          61.3431   87.4422    9.2522 O.3     1  UNL1       -0.4728
      2 C          63.4856   83.7487   10.6726 C.ar    1  UNL1       -0.0195
      3 C          62.6602   84.5528   11.6328 C.ar    1  UNL1       -0.0011
      4 C          61.9460   85.7840   11.1593 C.ar    1  UNL1        0.0366
      5 C          62.0573   86.2110    9.7257 C.ar    1  UNL1        0.1387
      6 C          62.8827   85.4068    8.7656 C.ar    1  UNL1        0.0366
      7 C          63.5969   84.1757    9.2390 C.ar    1  UNL1       -0.0011
      8 C          64.1998   82.5175   11.1461 C.3     1  UNL1        0.0584
      9 C          63.9206   81.9676   12.5134 C.3     1  UNL1        0.1469
     10 C          61.7237   81.3012   13.7299 C.3     1  UNL1        0.1741
     11 O          62.7898   81.0034   12.7175 O.3     1  UNL1       -0.3507
     12 C          59.9837   87.7749    9.7919 C.3     1  UNL1        0.2358
     13 C          59.8390   88.7918   10.8851 C.3     1  UNL1        0.1697
     14 O          59.2528   88.3935   12.2070 O.3     1  UNL1       -0.3793
     15 H          59.2309   89.1637   12.7963 H       1  UNL1        0.2106
     16 C          60.2805   90.2070   10.6562 C.3     1  UNL1        0.1020
     17 N          61.6014   90.4840   10.0017 N.3     1  UNL1       -0.2964
     18 H          61.5149   91.3865    9.5343 H       1  UNL1        0.1233
     19 C          62.8509   90.5430   10.8294 C.3     1  UNL1        0.0541
     20 C          63.0895   89.5210   11.9012 C.3     1  UNL1        0.0171
     21 C          63.8619   91.6240   10.5855 C.3     1  UNL1        0.0171
@<TRIPOS>BOND
     1    10    11    1
     2    11     9    1
     3     9     8    1
     4     8     2    1
     5     2     3   ar
     6     3     4   ar
     7     4     5   ar
     8     5     1    1
     9     1    12    1
    10    12    13    1
    11    13    14    1
    12    13    16    1
    13    16    17    1
    14    17    19    1
    15    19    20    1
    16    19    21    1
    17     5     6   ar
    18     6     7   ar
    19     7     2   ar
    20    14    15    1
    21    17    18    1
@<TRIPOS>MOLECULE
*****
 21 21 0 0 0
SMALL
GASTEIGER

@<TRIPOS>ATOM
      1 O          64.4116   83.3683   12.7386 O.3     1  UNL1       -0.4728
      2 C          62.1136   85.5467    9.5412 C.ar    1  UNL1       -0.0195
      3 C          61.8324   85.8246   10.9881 C.ar    1  UNL1       -0.0011
      4 C          62.5984   85.0984   12.0539 C.ar    1  UNL1        0.0366
      5 C          63.6456   84.0944   11.6728 C.ar    1  UNL1        0.1387
      6 C          63.9268   83.8166   10.2259 C.ar    1  UNL1        0.0366
      7 C          63.1608   84.5427    9.1601 C.ar    1  UNL1       -0.0011
      8 C          61.3476   86.2729    8.4754 C.3     1  UNL1        0.0584
      9 C          60.0677   86.9758    8.8186 C.3     1  UNL1        0.1469
     10 C          59.2901   88.8497    7.1957 C.3     1  UNL1        0.1741
     11 O          59.1576   87.4527    7.7258 O.3     1  UNL1       -0.3507
     12 C          63.8419   82.1264   13.3575 C.3     1  UNL1        0.2358
     13 C          62.8302   82.2339   14.4597 C.3     1  UNL1        0.1697
     14 O          61.8350   81.1323   14.6744 O.3     1  UNL1       -0.3793
     15 H          61.2586   81.3583   15.4211 H       1  UNL1        0.2106
     16 C          62.8138   83.4430   15.3474 C.3     1  UNL1        0.1020
     17 N          64.0388   84.2999   15.4702 N.3     1  UNL1       -0.2964
     18 H          64.5467   84.2154   14.5897 H       1  UNL1        0.1233
     19 C          63.9028   85.7667   15.7527 C.3     1  UNL1        0.0541
     20 C          63.1713   86.2300   16.9775 C.3     1  UNL1        0.0171
     21 C          64.4984   86.7704   14.8103 C.3     1  UNL1        0.0171
@<TRIPOS>BOND
     1    10    11    1
     2    11     9    1
     3     9     8    1
     4     8     2    1
     5     2     3   ar
     6     3     4   ar
     7     4     5   ar
     8     5     1    1
     9     1    12    1
    10    12    13    1
    11    13    14    1
    12    13    16    1
    13    16    17    1
    14    17    19    1
    15    19    20    1
    16    19    21    1
    17     5     6   ar
    18     6     7   ar
    19     7     2   ar
    20    14    15    1
    21    17    18    1
@<TRIPOS>MOLECULE
*****
 21 21 0 0 0
SMALL
GASTEIGER

@<TRIPOS>ATOM
      1 O          64.4099   83.5674   12.9225 O.3     1  UNL1       -0.4728
      2 C          62.3244   85.3622    9.3616 C.ar    1  UNL1       -0.0195
      3 C          63.3580   84.2931    9.1652 C.ar    1  UNL1       -0.0011
      4 C          64.0531   83.6949   10.3522 C.ar    1  UNL1        0.0366
      5 C          63.7147   84.1657   11.7355 C.ar    1  UNL1        0.1387
      6 C          62.6811   85.2348   11.9319 C.ar    1  UNL1        0.0366
      7 C          61.9859   85.8331   10.7450 C.ar    1  UNL1       -0.0011
      8 C          61.6292   85.9605    8.1747 C.3     1  UNL1        0.0584
      9 C          60.2274   86.4773    8.3084 C.3     1  UNL1        0.1469
     10 C          60.3009   88.8961    9.2541 C.3     1  UNL1        0.1741
     11 O          59.9501   87.9429    8.1501 O.3     1  UNL1       -0.3507
     12 C          64.5127   84.3441   14.2015 C.3     1  UNL1        0.2358
     13 C          63.3172   84.4745   15.0980 C.3     1  UNL1        0.1697
     14 O          63.1244   85.7175   15.9152 O.3     1  UNL1       -0.3793
     15 H          62.3091   85.6396   16.4348 H       1  UNL1        0.2106
     16 C          62.3143   83.3617   15.1774 C.3     1  UNL1        0.1020
     17 N          62.7422   81.9469   14.9220 N.3     1  UNL1       -0.2964
     18 H          62.6822   81.4556   15.8139 H       1  UNL1        0.1233
     19 C          62.0070   81.1109   13.9168 C.3     1  UNL1        0.0541
     20 C          62.7159   80.6155   12.6913 C.3     1  UNL1        0.0171
     21 C          60.5629   80.7702   14.1372 C.3     1  UNL1        0.0171
@<TRIPOS>BOND
     1    10    11    1
     2    11     9    1
     3     9     8    1
     4     8     2    1
     5     2     3   ar
     6     3     4   ar
     7     4     5   ar
     8     5     1    1
     9     1    12    1
    10    12    13    1
    11    13    14    1
    12    13    16    1
    13    16    17    1
    14    17    19    1
    15    19    20    1
    16    19    21    1
    17     5     6   ar
    18     6     7   ar
    19     7     2   ar
    20    14    15    1
    21    17    18    1
@<TRIPOS>MOLECULE
*****
 21 21 0 0 0
SMALL
GASTEIGER

@<TRIPOS>ATOM
      1 O          64.3246   91.9711   13.2649 O.3     1  UNL1       -0.4728
      2 C          62.4738   88.7913   10.6739 C.ar    1  UNL1       -0.0195
      3 C          62.6311   90.1880   10.1501 C.ar    1  UNL1       -0.0011
      4 C          63.2480   91.2479   11.0137 C.ar    1  UNL1        0.0366
      5 C          63.7076   90.9111   12.4013 C.ar    1  UNL1        0.1387
      6 C          63.5503   89.5145   12.9251 C.ar    1  UNL1        0.0366
      7 C          62.9333   88.4545   12.0615 C.ar    1  UNL1       -0.0011
      8 C          61.8568   87.7314    9.8103 C.3     1  UNL1        0.0584
      9 C          61.6574   86.3462   10.3501 C.3     1  UNL1        0.1469
     10 C          62.9974   85.3304    8.3694 C.3     1  UNL1        0.1741
     11 O          62.3812   85.1880    9.7297 O.3     1  UNL1       -0.3507
     12 C          65.7940   91.9337   13.5638 C.3     1  UNL1        0.2358
     13 C          66.7751   92.4878   12.5736 C.3     1  UNL1        0.1697
     14 O          68.2128   92.0633   12.6243 O.3     1  UNL1       -0.3793
     15 H          68.7073   92.5113   11.9203 H       1  UNL1        0.2106
     16 C          66.3183   93.4664   11.5325 C.3     1  UNL1        0.1020
     17 N          67.3222   94.3119   10.8062 N.3     1  UNL1       -0.2964
     18 H          68.1827   94.2824   11.3531 H       1  UNL1        0.1233
     19 C          67.6966   93.9827    9.3916 C.3     1  UNL1        0.0541
     20 C          67.3460   94.9303    8.2829 C.3     1  UNL1        0.0171
     21 C          68.4218   92.7057    9.0854 C.3     1  UNL1        0.0171
@<TRIPOS>BOND
     1    10    11    1
     2    11     9    1
     3     9     8    1
     4     8     2    1
     5     2     3   ar
     6     3     4   ar
     7     4     5   ar
     8     5     1    1
     9     1    12    1
    10    12    13    1
    11    13    14    1
    12    13    16    1
    13    16    17    1
    14    17    19    1
    15    19    20    1
    16    19    21    1
    17     5     6   ar
    18     6     7   ar
    19     7     2   ar
    20    14    15    1
    21    17    18    1
@<TRIPOS>MOLECULE
*****
 21 21 0 0 0
SMALL
GASTEIGER

@<TRIPOS>ATOM
      1 O          64.2461   91.6591   13.4087 O.3     1  UNL1       -0.4728
      2 C          62.4020   88.6499   10.6169 C.ar    1  UNL1       -0.0195
      3 C          62.9018   88.2163   11.9631 C.ar    1  UNL1       -0.0011
      4 C          63.5165   89.2194   12.8937 C.ar    1  UNL1        0.0366
      5 C          63.6314   90.6560   12.4781 C.ar    1  UNL1        0.1387
      6 C          63.1316   91.0896   11.1320 C.ar    1  UNL1        0.0366
      7 C          62.5169   90.0866   10.2014 C.ar    1  UNL1       -0.0011
      8 C          61.7874   87.6468    9.6863 C.3     1  UNL1        0.0584
      9 C          60.3482   87.7796    9.2850 C.3     1  UNL1        0.1469
     10 C          59.2972   88.8941    7.1865 C.3     1  UNL1        0.1741
     11 O          59.9649   87.7183    7.8360 O.3     1  UNL1       -0.3507
     12 C          65.6837   92.0536   13.2428 C.3     1  UNL1        0.2358
     13 C          66.0398   93.4771   12.9316 C.3     1  UNL1        0.1697
     14 O          66.4489   94.4064   14.0356 O.3     1  UNL1       -0.3793
     15 H          66.6438   95.2818   13.6659 H       1  UNL1        0.2106
     16 C          65.9866   93.9713   11.5163 C.3     1  UNL1        0.1020
     17 N          67.2343   94.4678   10.8480 N.3     1  UNL1       -0.2964
     18 H          68.0058   94.2811   11.4886 H       1  UNL1        0.1233
     19 C          67.6386   93.9191    9.5118 C.3     1  UNL1        0.0541
     20 C          68.1817   92.5248    9.4067 C.3     1  UNL1        0.0171
     21 C          67.4998   94.7647    8.2806 C.3     1  UNL1        0.0171
@<TRIPOS>BOND
     1    10    11    1
     2    11     9    1
     3     9     8    1
     4     8     2    1
     5     2     3   ar
     6     3     4   ar
     7     4     5   ar
     8     5     1    1
     9     1    12    1
    10    12    13    1
    11    13    14    1
    12    13    16    1
    13    16    17    1
    14    17    19    1
    15    19    20    1
    16    19    21    1
    17     5     6   ar
    18     6     7   ar
    19     7     2   ar
    20    14    15    1
    21    17    18    1
@<TRIPOS>MOLECULE
*****
 21 21 0 0 0
SMALL
GASTEIGER

@<TRIPOS>ATOM
      1 O          64.6185   91.6375   13.7562 O.3     1  UNL1       -0.4728
      2 C          62.5521   89.0956   10.6709 C.ar    1  UNL1       -0.0195
      3 C          62.9262   90.5117   10.3475 C.ar    1  UNL1       -0.0011
      4 C          63.6150   91.3590   11.3759 C.ar    1  UNL1        0.0366
      5 C          63.9297   90.7902   12.7277 C.ar    1  UNL1        0.1387
      6 C          63.5556   89.3741   13.0511 C.ar    1  UNL1        0.0366
      7 C          62.8667   88.5268   12.0227 C.ar    1  UNL1       -0.0011
      8 C          61.8633   88.2483    9.6425 C.3     1  UNL1        0.0584
      9 C          60.6869   87.4034   10.0326 C.3     1  UNL1        0.1469
     10 C          59.6150   86.4878    7.8502 C.3     1  UNL1        0.1741
     11 O          59.5072   87.2899    9.1132 O.3     1  UNL1       -0.3507
     12 C          66.0264   91.3225   14.1666 C.3     1  UNL1        0.2358
     13 C          67.1167   92.3272   13.9387 C.3     1  UNL1        0.1697
     14 O          68.5404   91.8727   13.8097 O.3     1  UNL1       -0.3793
     15 H          69.1137   92.6420   13.6668 H       1  UNL1        0.2106
     16 C          66.7833   93.7863   13.8397 C.3     1  UNL1        0.1020
     17 N          65.7843   94.2603   12.8261 N.3     1  UNL1       -0.2964
     18 H          65.3739   95.1178   13.1958 H       1  UNL1        0.1233
     19 C          66.2236   94.5602   11.4236 C.3     1  UNL1        0.0541
     20 C          66.5976   93.4398   10.4990 C.3     1  UNL1        0.0171
     21 C          66.2888   95.9806   10.9455 C.3     1  UNL1        0.0171
@<TRIPOS>BOND
     1    10    11    1
     2    11     9    1
     3     9     8    1
     4     8     2    1
     5     2     3   ar
     6     3     4   ar
     7     4     5   ar
     8     5     1    1
     9     1    12    1
    10    12    13    1
    11    13    14    1
    12    13    16    1
    13    16    17    1
    14    17    19    1
    15    19    20    1
    16    19    21    1
    17     5     6   ar
    18     6     7   ar
    19     7     2   ar
    20    14    15    1
    21    17    18    1
@<TRIPOS>MOLECULE
*****
 21 21 0 0 0
SMALL
GASTEIGER

@<TRIPOS>ATOM
      1 O          63.4681   83.2716   11.3697 O.3     1  UNL1       -0.4728
      2 C          61.5758   86.9652    9.6299 C.ar    1  UNL1       -0.0195
      3 C          61.3764   86.6317   11.0787 C.ar    1  UNL1       -0.0011
      4 C          62.0072   85.4005   11.6586 C.ar    1  UNL1        0.0366
      5 C          62.8373   84.5028   10.7898 C.ar    1  UNL1        0.1387
      6 C          63.0367   84.8363    9.3410 C.ar    1  UNL1        0.0366
      7 C          62.4059   86.0675    8.7611 C.ar    1  UNL1       -0.0011
      8 C          60.9450   88.1963    9.0500 C.3     1  UNL1        0.0584
      9 C          61.0960   89.5158    9.7472 C.3     1  UNL1        0.1469
     10 C          62.6754   90.7720   11.3836 C.3     1  UNL1        0.1741
     11 O          62.4618   90.0258   10.0999 O.3     1  UNL1       -0.3507
     12 C          62.8090   82.5587   12.5131 C.3     1  UNL1        0.2358
     13 C          63.2888   82.7870   13.9158 C.3     1  UNL1        0.1697
     14 O          62.6465   82.0548   15.0566 O.3     1  UNL1       -0.3793
     15 H          63.0719   82.3155   15.8885 H       1  UNL1        0.2106
     16 C          64.4108   83.7475   14.1778 C.3     1  UNL1        0.1020
     17 N          64.5325   84.4112   15.5174 N.3     1  UNL1       -0.2964
     18 H          65.5247   84.4176   15.7538 H       1  UNL1        0.1233
     19 C          64.0330   85.8126   15.7083 C.3     1  UNL1        0.0541
     20 C          64.3808   86.8755   14.7086 C.3     1  UNL1        0.0171
     21 C          63.1855   86.1512   16.8988 C.3     1  UNL1        0.0171
@<TRIPOS>BOND
     1    10    11    1
     2    11     9    1
     3     9     8    1
     4     8     2    1
     5     2     3   ar
     6     3     4   ar
     7     4     5   ar
     8     5     1    1
     9     1    12    1
    10    12    13    1
    11    13    14    1
    12    13    16    1
    13    16    17    1
    14    17    19    1
    15    19    20    1
    16    19    21    1
    17     5     6   ar
    18     6     7   ar
    19     7     2   ar
    20    14    15    1
    21    17    18    1
@<TRIPOS>MOLECULE
*****
 21 21 0 0 0
SMALL
GASTEIGER

@<TRIPOS>ATOM
      1 O          62.2102   89.5382   12.3829 O.3     1  UNL1       -0.4728
      2 C          65.5536   92.5281   12.0193 C.ar    1  UNL1       -0.0195
      3 C          64.6826   92.2291   10.8352 C.ar    1  UNL1       -0.0011
      4 C          63.5682   91.2325   10.9564 C.ar    1  UNL1        0.0366
      5 C          63.3246   90.5348   12.2617 C.ar    1  UNL1        0.1387
      6 C          64.1955   90.8337   13.4458 C.ar    1  UNL1        0.0366
      7 C          65.3100   91.8304   13.3246 C.ar    1  UNL1       -0.0011
      8 C          66.6680   93.5247   11.8980 C.3     1  UNL1        0.0584
      9 C          66.4724   94.7741   11.0915 C.3     1  UNL1        0.1469
     10 C          67.9511   93.8302    9.1751 C.3     1  UNL1        0.1741
     11 O          67.2663   94.9891    9.8371 O.3     1  UNL1       -0.3507
     12 C          60.9341   89.7438   11.6219 C.3     1  UNL1        0.2358
     13 C          60.0038   88.5898   11.3917 C.3     1  UNL1        0.1697
     14 O          58.9663   88.2464   12.4190 O.3     1  UNL1       -0.3793
     15 H          58.4530   87.4808   12.1168 H       1  UNL1        0.2106
     16 C          60.1112   87.7793   10.1340 C.3     1  UNL1        0.1020
     17 N          61.4055   87.1073    9.7831 N.3     1  UNL1       -0.2964
     18 H          61.6870   86.5654   10.6002 H       1  UNL1        0.1233
     19 C          61.4746   86.1815    8.6049 C.3     1  UNL1        0.0541
     20 C          62.7457   85.4441    8.3040 C.3     1  UNL1        0.0171
     21 C          60.2725   85.9931    7.7276 C.3     1  UNL1        0.0171
@<TRIPOS>BOND
     1    10    11    1
     2    11     9    1
     3     9     8    1
     4     8     2    1
     5     2     3   ar
     6     3     4   ar
     7     4     5   ar
     8     5     1    1
     9     1    12    1
    10    12    13    1
    11    13    14    1
    12    13    16    1
    13    16    17    1
    14    17    19    1
    15    19    20    1
    16    19    21    1
    17     5     6   ar
    18     6     7   ar
    19     7     2   ar
    20    14    15    1
    21    17    18    1
