@<TRIPOS>MOLECULE
*****
 39 44 0 0 0
SMALL
GASTEIGER

@<TRIPOS>ATOM
      1 C          63.6309   89.3155   13.2473 C.ar    1  UNL1        0.0447
      2 C          64.5140   89.5317   14.4403 C.ar    1  UNL1        0.0156
      3 C          65.0241   88.3555   15.2189 C.ar    1  UNL1        0.0159
      4 C          64.6510   86.9629   14.8044 C.ar    1  UNL1        0.0507
      5 C          63.7679   86.7467   13.6114 C.ar    1  UNL1        0.0193
      6 C          63.2578   87.9230   12.8328 C.ar    1  UNL1        0.0157
      7 C          63.5703   85.2694   13.4427 C.2     1  UNL1        0.0623
      8 C          62.7549   84.6055   12.3730 C.2     1  UNL1        0.0929
      9 C          64.3313   84.5726   14.5314 C.2     1  UNL1        0.2498
     10 O          64.4104   83.0894   14.7416 O.2     1  UNL1       -0.2698
     11 N          64.9992   85.6192   15.3730 N.am    1  UNL1       -0.2804
     12 H          65.5665   85.4534   16.1604 H       1  UNL1        0.1552
     13 C          62.0456   85.4371   11.3457 C.2     1  UNL1        0.3754
     14 N          62.0094   85.1732    9.8695 N.2     1  UNL1       -0.0308
     15 C          61.1894   86.2517    9.2258 C.2     1  UNL1        0.2321
     16 C          60.8104   86.5067    7.7970 C.2     1  UNL1        0.0498
     17 C          59.9609   87.6922    7.4466 C.2     1  UNL1       -0.0002
     18 C          59.4903   88.6227    8.5249 C.2     1  UNL1       -0.0172
     19 C          59.8692   88.3678    9.9536 C.3     1  UNL1        0.1037
     20 C          60.7188   87.1823   10.3041 C.2     1  UNL1        0.2178
     21 N          61.2480   86.6788   11.6142 N.2     1  UNL1       -0.0347
     22 C          62.6486   83.1098   12.3305 C.ar    1  UNL1        0.0121
     23 C          63.1567   82.3554   11.1378 C.ar    1  UNL1        0.0300
     24 C          63.0504   80.8598   11.0953 C.ar    1  UNL1        0.1424
     25 F          63.5585   80.1054    9.9024 F       1  UNL1       -0.2041
     26 C          62.4362   80.1186   12.2456 C.ar    1  UNL1        0.0592
     27 C          61.9281   80.8730   13.4384 C.ar    1  UNL1        0.1424
     28 F          61.3139   80.1318   14.5887 F       1  UNL1       -0.2041
     29 C          62.0344   82.3686   13.4809 C.ar    1  UNL1        0.0300
     30 N          63.1208   90.4918   12.4687 N.pl3   1  UNL1       -0.3339
     31 H          62.1625   90.5619   12.2541 H       1  UNL1        0.1468
     32 N          65.9706   93.6999   11.1137 N.3     1  UNL1       -0.2726
     33 C          65.0347   93.0635   10.1292 C.3     1  UNL1        0.0738
     34 C          64.0847   91.9941   10.5809 C.3     1  UNL1        0.0368
     35 C          64.0707   91.5612   12.0170 C.3     1  UNL1        0.0718
     36 C          65.0066   92.1976   13.0014 C.3     1  UNL1        0.0368
     37 C          65.9566   93.2669   12.5497 C.3     1  UNL1        0.0738
     38 C          67.6578   94.6183    9.3644 C.3     1  UNL1        0.0188
     39 C          66.9206   94.7693   10.6620 C.3     1  UNL1        0.0721
@<TRIPOS>BOND
     1    38    39    1
     2    39    32    1
     3    32    33    1
     4    33    34    1
     5    34    35    1
     6    35    30    1
     7    30     1    1
     8     1     2   ar
     9     2     3   ar
    10     3     4   ar
    11     4     5   ar
    12     5     6   ar
    13     5     7    1
    14     7     8    2
    15     8    22    1
    16    22    23   ar
    17    23    24   ar
    18    24    25    1
    19    24    26   ar
    20    26    27   ar
    21    27    28    1
    22    27    29   ar
    23     8    13    1
    24    13    14    2
    25    14    15    1
    26    15    16    2
    27    16    17    1
    28    17    18    2
    29    18    19    1
    30    19    20    1
    31    20    21    2
    32     7     9    1
    33     9    10    2
    34     9    11   am
    35    35    36    1
    36    36    37    1
    37    37    32    1
    38     6     1   ar
    39    29    22   ar
    40    21    13    1
    41    11     4    1
    42    20    15    1
    43    30    31    1
    44    11    12    1
@<TRIPOS>MOLECULE
*****
 39 44 0 0 0
SMALL
GASTEIGER

@<TRIPOS>ATOM
      1 C          61.6098   88.1848   11.1110 C.ar    1  UNL1        0.0447
      2 C          61.2959   88.7496    9.7573 C.ar    1  UNL1        0.0156
      3 C          61.9620   90.0131    9.2991 C.ar    1  UNL1        0.0159
      4 C          62.9419   90.7116   10.1944 C.ar    1  UNL1        0.0507
      5 C          63.2559   90.1468   11.5481 C.ar    1  UNL1        0.0193
      6 C          62.5898   88.8833   12.0063 C.ar    1  UNL1        0.0157
      7 C          64.2567   91.0496   12.2063 C.2     1  UNL1        0.0623
      8 C          64.8489   90.8624   13.5717 C.2     1  UNL1        0.0929
      9 C          64.5613   92.1724   11.2595 C.2     1  UNL1        0.2498
     10 O          65.5117   93.3052   11.5119 O.2     1  UNL1       -0.2698
     11 N          63.7488   91.9636   10.0161 N.am    1  UNL1       -0.2804
     12 H          63.7456   92.5459    9.2223 H       1  UNL1        0.1552
     13 C          64.4463   89.6846   14.4088 C.2     1  UNL1        0.3754
     14 N          64.8253   88.2548   14.1595 N.2     1  UNL1       -0.0308
     15 C          64.2072   87.4165   15.2389 C.2     1  UNL1        0.2321
     16 C          64.2391   85.9407   15.5058 C.2     1  UNL1        0.0498
     17 C          63.5099   85.3766   16.6890 C.2     1  UNL1       -0.0002
     18 C          62.7489   86.2883   17.6054 C.2     1  UNL1       -0.0172
     19 C          62.7170   87.7640   17.3387 C.3     1  UNL1        0.1037
     20 C          63.4462   88.3282   16.1554 C.2     1  UNL1        0.2178
     21 N          63.5940   89.7298   15.6423 N.2     1  UNL1       -0.0347
     22 C          65.8437   91.8529   14.1000 C.ar    1  UNL1        0.0121
     23 C          65.7948   93.2810   13.6438 C.ar    1  UNL1        0.0300
     24 C          66.7896   94.2716   14.1721 C.ar    1  UNL1        0.1424
     25 F          66.7407   95.6998   13.7158 F       1  UNL1       -0.2041
     26 C          67.8334   93.8341   15.1565 C.ar    1  UNL1        0.0592
     27 C          67.8823   92.4060   15.6127 C.ar    1  UNL1        0.1424
     28 F          68.9260   91.9684   16.5972 F       1  UNL1       -0.2041
     29 C          66.8874   91.4154   15.0844 C.ar    1  UNL1        0.0300
     30 N          60.9438   86.9213   11.5693 N.pl3   1  UNL1       -0.3339
     31 H          59.9765   86.9132   11.7524 H       1  UNL1        0.1468
     32 N          63.3671   83.1679   12.1074 N.3     1  UNL1       -0.2726
     33 C          63.2033   83.7655   10.7413 C.3     1  UNL1        0.0738
     34 C          62.3955   85.0166   10.5619 C.3     1  UNL1        0.0368
     35 C          61.7515   85.6701   11.7487 C.3     1  UNL1        0.0718
     36 C          61.9153   85.0725   13.1147 C.3     1  UNL1        0.0368
     37 C          62.7231   83.8214   13.2940 C.3     1  UNL1        0.0738
     38 C          63.8370   80.9575   13.3893 C.3     1  UNL1        0.0188
     39 C          64.1748   81.9167   12.2868 C.3     1  UNL1        0.0721
@<TRIPOS>BOND
     1    38    39    1
     2    39    32    1
     3    32    33    1
     4    33    34    1
     5    34    35    1
     6    35    30    1
     7    30     1    1
     8     1     2   ar
     9     2     3   ar
    10     3     4   ar
    11     4     5   ar
    12     5     6   ar
    13     5     7    1
    14     7     8    2
    15     8    22    1
    16    22    23   ar
    17    23    24   ar
    18    24    25    1
    19    24    26   ar
    20    26    27   ar
    21    27    28    1
    22    27    29   ar
    23     8    13    1
    24    13    14    2
    25    14    15    1
    26    15    16    2
    27    16    17    1
    28    17    18    2
    29    18    19    1
    30    19    20    1
    31    20    21    2
    32     7     9    1
    33     9    10    2
    34     9    11   am
    35    35    36    1
    36    36    37    1
    37    37    32    1
    38     6     1   ar
    39    29    22   ar
    40    21    13    1
    41    11     4    1
    42    20    15    1
    43    30    31    1
    44    11    12    1
@<TRIPOS>MOLECULE
*****
 39 44 0 0 0
SMALL
GASTEIGER

@<TRIPOS>ATOM
      1 C          63.4576   90.3579   15.9456 C.ar    1  UNL1        0.0447
      2 C          64.0436   90.9731   17.1817 C.ar    1  UNL1        0.0156
      3 C          65.0587   92.0711   17.0640 C.ar    1  UNL1        0.0159
      4 C          65.4879   92.5538   15.7102 C.ar    1  UNL1        0.0507
      5 C          64.9020   91.9385   14.4741 C.ar    1  UNL1        0.0193
      6 C          63.8868   90.8405   14.5918 C.ar    1  UNL1        0.0157
      7 C          65.5140   92.6163   13.2842 C.2     1  UNL1        0.0623
      8 C          65.2144   92.3131   11.8460 C.2     1  UNL1        0.0929
      9 C          66.4782   93.6505   13.7849 C.2     1  UNL1        0.2498
     10 O          67.3122   94.5631   12.9353 O.2     1  UNL1       -0.2698
     11 N          66.4621   93.6119   15.2843 N.am    1  UNL1       -0.2804
     12 H          66.9970   94.1811   15.8836 H       1  UNL1        0.1552
     13 C          64.2210   91.2453   11.4958 C.2     1  UNL1        0.3754
     14 N          64.1072   89.8988   12.1473 N.2     1  UNL1       -0.0308
     15 C          62.9828   89.1578   11.4867 C.2     1  UNL1        0.2321
     16 C          62.4130   87.7888   11.7132 C.2     1  UNL1        0.0498
     17 C          61.2620   87.3082   10.8800 C.2     1  UNL1       -0.0002
     18 C          60.6808   88.1966    9.8202 C.2     1  UNL1       -0.0172
     19 C          61.2505   89.5655    9.5936 C.3     1  UNL1        0.1037
     20 C          62.4015   90.0462   10.4269 C.2     1  UNL1        0.2178
     21 N          63.1668   91.3362   10.4326 N.2     1  UNL1       -0.0347
     22 C          65.9083   93.0778   10.7580 C.ar    1  UNL1        0.0121
     23 C          67.0793   92.4706   10.0440 C.ar    1  UNL1        0.0300
     24 C          67.7732   93.2353    8.9560 C.ar    1  UNL1        0.1424
     25 F          68.9443   92.6279    8.2420 F       1  UNL1       -0.2041
     26 C          67.2960   94.6073    8.5820 C.ar    1  UNL1        0.0592
     27 C          66.1249   95.2145    9.2960 C.ar    1  UNL1        0.1424
     28 F          65.6477   96.5865    8.9219 F       1  UNL1       -0.2041
     29 C          65.4311   94.4498   10.3840 C.ar    1  UNL1        0.0300
     30 N          62.4424   89.2598   16.0632 N.pl3   1  UNL1       -0.3339
     31 H          61.4985   89.4787   16.2376 H       1  UNL1        0.1468
     32 N          63.7113   84.9654   15.6190 N.3     1  UNL1       -0.2726
     33 C          64.3453   86.0265   14.7692 C.3     1  UNL1        0.0738
     34 C          63.9223   87.4580   14.9173 C.3     1  UNL1        0.0368
     35 C          62.8654   87.8283   15.9152 C.3     1  UNL1        0.0718
     36 C          62.2314   86.7672   16.7649 C.3     1  UNL1        0.0368
     37 C          62.6544   85.3357   16.6168 C.3     1  UNL1        0.0738
     38 C          63.5490   82.6880   14.3792 C.3     1  UNL1        0.0188
     39 C          64.1342   83.5339   15.4710 C.3     1  UNL1        0.0721
@<TRIPOS>BOND
     1    38    39    1
     2    39    32    1
     3    32    33    1
     4    33    34    1
     5    34    35    1
     6    35    30    1
     7    30     1    1
     8     1     2   ar
     9     2     3   ar
    10     3     4   ar
    11     4     5   ar
    12     5     6   ar
    13     5     7    1
    14     7     8    2
    15     8    22    1
    16    22    23   ar
    17    23    24   ar
    18    24    25    1
    19    24    26   ar
    20    26    27   ar
    21    27    28    1
    22    27    29   ar
    23     8    13    1
    24    13    14    2
    25    14    15    1
    26    15    16    2
    27    16    17    1
    28    17    18    2
    29    18    19    1
    30    19    20    1
    31    20    21    2
    32     7     9    1
    33     9    10    2
    34     9    11   am
    35    35    36    1
    36    36    37    1
    37    37    32    1
    38     6     1   ar
    39    29    22   ar
    40    21    13    1
    41    11     4    1
    42    20    15    1
    43    30    31    1
    44    11    12    1
