@<TRIPOS>MOLECULE
*****
 29 32 0 0 0
SMALL
GASTEIGER

@<TRIPOS>ATOM
      1 N          63.3749   85.1415   14.2800 N.ar    1  UNL1       -0.1822
      2 C          63.0388   84.4350   15.5597 C.ar    1  UNL1        0.2143
      3 N          62.7933   82.9635   15.7163 N.pl3   1  UNL1       -0.3275
      4 N          62.9911   85.4584   16.6554 N.ar    1  UNL1       -0.2126
      5 C          63.2978   86.7973   16.0528 C.ar    1  UNL1        0.1017
      6 C          63.3917   88.1695   16.6512 C.ar    1  UNL1        0.0208
      7 C          63.7228   89.3459   15.7816 C.ar    1  UNL1        0.0029
      8 C          63.9601   89.1501   14.3135 C.ar    1  UNL1        0.0174
      9 C          63.8662   87.7779   13.7150 C.ar    1  UNL1        0.0218
     10 C          63.5350   86.6015   14.5847 C.ar    1  UNL1        0.1026
     11 H          62.8477   82.3693   14.9332 H       1  UNL1        0.1451
     12 H          62.5780   82.5919   16.6022 H       1  UNL1        0.1451
     13 C          64.2913   90.3266   13.4438 C.2     1  UNL1        0.0872
     14 N          65.3745   91.3329   13.6968 N.2     1  UNL1       -0.2264
     15 C          65.3501   92.3315   12.5779 C.2     1  UNL1        0.1945
     16 N          64.2517   91.9424   11.6332 N.2     1  UNL1       -0.2415
     17 C          63.5974   90.7034   12.1684 C.3     1  UNL1        0.1669
     18 C          62.4504   89.9698   11.5388 C.ar    1  UNL1        0.0055
     19 C          62.6769   89.1330   10.3146 C.ar    1  UNL1       -0.0020
     20 C          61.5300   88.3994    9.6850 C.ar    1  UNL1       -0.0003
     21 C          60.1566   88.5027   10.2793 C.ar    1  UNL1       -0.0000
     22 C          59.9302   89.3395   11.5034 C.ar    1  UNL1       -0.0003
     23 C          61.0771   90.0731   12.1331 C.ar    1  UNL1       -0.0020
     24 S          63.5248   84.5006   12.9321 S.O2    1  UNL1        0.0667
     25 O          64.7649   83.8004   13.4029 O.2     1  UNL1       -0.1521
     26 O          62.2847   85.2008   12.4613 O.2     1  UNL1       -0.1521
     27 C          63.0471   84.4935   10.3782 C.3     1  UNL1        0.0275
     28 C          63.6746   83.8596   11.5842 C.3     1  UNL1        0.1516
     29 C          64.4521   82.5847   11.4424 C.3     1  UNL1        0.0275
@<TRIPOS>BOND
     1    27    28    1
     2    28    29    1
     3    28    24    1
     4    24    25    2
     5    24    26    2
     6    24     1    1
     7     1     2   ar
     8     2     3    1
     9     2     4   ar
    10     4     5   ar
    11     5     6   ar
    12     6     7   ar
    13     7     8   ar
    14     8    13    1
    15    13    14    2
    16    14    15    1
    17    15    16    2
    18    16    17    1
    19    17    18    1
    20    18    19   ar
    21    19    20   ar
    22    20    21   ar
    23    21    22   ar
    24    22    23   ar
    25     8     9   ar
    26     9    10   ar
    27    10     1   ar
    28    10     5   ar
    29    17    13    1
    30    23    18   ar
    31     3    11    1
    32     3    12    1
@<TRIPOS>MOLECULE
*****
 29 32 0 0 0
SMALL
GASTEIGER

@<TRIPOS>ATOM
      1 N          62.7919   84.8693   11.8277 N.ar    1  UNL1       -0.1822
      2 C          62.7766   83.5189   12.4806 C.ar    1  UNL1        0.2143
      3 N          62.3385   82.2350   11.8406 N.pl3   1  UNL1       -0.3275
      4 N          63.2763   83.6780   13.8860 N.ar    1  UNL1       -0.2126
      5 C          63.6005   85.1266   14.1016 C.ar    1  UNL1        0.1017
      6 C          64.1296   85.8703   15.2919 C.ar    1  UNL1        0.0208
      7 C          64.3594   87.3503   15.2101 C.ar    1  UNL1        0.0029
      8 C          64.0599   88.0866   13.9380 C.ar    1  UNL1        0.0174
      9 C          63.5308   87.3429   12.7477 C.ar    1  UNL1        0.0218
     10 C          63.3011   85.8629   12.8295 C.ar    1  UNL1        0.1026
     11 H          62.0245   82.2322   10.9075 H       1  UNL1        0.1451
     12 H          62.3649   81.3952   12.3536 H       1  UNL1        0.1451
     13 C          64.2897   89.5667   13.8563 C.2     1  UNL1        0.0872
     14 N          65.2982   90.3473   14.6459 N.2     1  UNL1       -0.2264
     15 C          65.1831   91.7890   14.2483 C.2     1  UNL1        0.1945
     16 N          64.1034   91.8994   13.2128 N.2     1  UNL1       -0.2415
     17 C          63.5513   90.5260   12.9706 C.3     1  UNL1        0.1669
     18 C          62.4534   90.1737   12.0111 C.ar    1  UNL1        0.0055
     19 C          62.7506   90.0435   10.5465 C.ar    1  UNL1       -0.0020
     20 C          61.6528   89.6912    9.5870 C.ar    1  UNL1       -0.0003
     21 C          60.2578   89.4691   10.0919 C.ar    1  UNL1       -0.0000
     22 C          59.9608   89.5993   11.5565 C.ar    1  UNL1       -0.0003
     23 C          61.0586   89.9516   12.5160 C.ar    1  UNL1       -0.0020
     24 S          62.3718   85.1728   10.4201 S.O2    1  UNL1        0.0667
     25 O          63.5135   84.3496    9.9018 O.2     1  UNL1       -0.1521
     26 O          61.2301   85.9961   10.9384 O.2     1  UNL1       -0.1521
     27 C          60.6346   86.1446    8.7503 C.3     1  UNL1        0.0275
     28 C          61.9517   85.4764    9.0124 C.3     1  UNL1        0.1516
     29 C          62.8488   85.1116    7.8670 C.3     1  UNL1        0.0275
@<TRIPOS>BOND
     1    27    28    1
     2    28    29    1
     3    28    24    1
     4    24    25    2
     5    24    26    2
     6    24     1    1
     7     1     2   ar
     8     2     3    1
     9     2     4   ar
    10     4     5   ar
    11     5     6   ar
    12     6     7   ar
    13     7     8   ar
    14     8    13    1
    15    13    14    2
    16    14    15    1
    17    15    16    2
    18    16    17    1
    19    17    18    1
    20    18    19   ar
    21    19    20   ar
    22    20    21   ar
    23    21    22   ar
    24    22    23   ar
    25     8     9   ar
    26     9    10   ar
    27    10     1   ar
    28    10     5   ar
    29    17    13    1
    30    23    18   ar
    31     3    11    1
    32     3    12    1
@<TRIPOS>MOLECULE
*****
 29 32 0 0 0
SMALL
GASTEIGER

@<TRIPOS>ATOM
      1 N          61.9006   86.5876   10.0607 N.ar    1  UNL1       -0.1822
      2 C          61.1244   86.7676    8.7898 C.ar    1  UNL1        0.2143
      3 N          60.8133   85.6960    7.7874 N.pl3   1  UNL1       -0.3275
      4 N          60.7139   88.2074    8.6974 N.ar    1  UNL1       -0.2126
      5 C          61.2364   88.9172    9.9111 C.ar    1  UNL1        0.1017
      6 C          61.1391   90.3458   10.3579 C.ar    1  UNL1        0.0208
      7 C          61.7752   90.7733   11.6473 C.ar    1  UNL1        0.0029
      8 C          62.5087   89.7722   12.4899 C.ar    1  UNL1        0.0174
      9 C          62.6060   88.3437   12.0431 C.ar    1  UNL1        0.0218
     10 C          61.9699   87.9162   10.7537 C.ar    1  UNL1        0.1026
     11 H          61.1281   84.7753    7.9374 H       1  UNL1        0.1451
     12 H          60.2943   85.9133    6.9795 H       1  UNL1        0.1451
     13 C          63.1448   90.1998   13.7793 C.2     1  UNL1        0.0872
     14 N          62.6835   89.8255   15.1567 N.2     1  UNL1       -0.2264
     15 C          63.6075   90.4711   16.1464 C.2     1  UNL1        0.1945
     16 N          64.6399   91.2443   15.3807 N.2     1  UNL1       -0.2415
     17 C          64.3539   91.0766   13.9178 C.3     1  UNL1        0.1669
     18 C          65.1393   91.6799   12.7911 C.ar    1  UNL1        0.0055
     19 C          64.4659   91.9825   11.4853 C.ar    1  UNL1       -0.0020
     20 C          65.2512   92.5858   10.3587 C.ar    1  UNL1       -0.0003
     21 C          66.7099   92.8864   10.5377 C.ar    1  UNL1       -0.0000
     22 C          67.3832   92.5837   11.8435 C.ar    1  UNL1       -0.0003
     23 C          66.5978   91.9805   12.9701 C.ar    1  UNL1       -0.0020
     24 S          62.5020   85.3044   10.5523 S.O2    1  UNL1        0.0667
     25 O          61.8198   85.4914   11.8750 O.2     1  UNL1       -0.1521
     26 O          63.1842   85.1174    9.2296 O.2     1  UNL1       -0.1521
     27 C          62.7661   83.5111   12.4136 C.3     1  UNL1        0.0275
     28 C          63.1034   84.0212   11.0439 C.3     1  UNL1        0.1516
     29 C          64.0422   83.2481   10.1659 C.3     1  UNL1        0.0275
@<TRIPOS>BOND
     1    27    28    1
     2    28    29    1
     3    28    24    1
     4    24    25    2
     5    24    26    2
     6    24     1    1
     7     1     2   ar
     8     2     3    1
     9     2     4   ar
    10     4     5   ar
    11     5     6   ar
    12     6     7   ar
    13     7     8   ar
    14     8    13    1
    15    13    14    2
    16    14    15    1
    17    15    16    2
    18    16    17    1
    19    17    18    1
    20    18    19   ar
    21    19    20   ar
    22    20    21   ar
    23    21    22   ar
    24    22    23   ar
    25     8     9   ar
    26     9    10   ar
    27    10     1   ar
    28    10     5   ar
    29    17    13    1
    30    23    18   ar
    31     3    11    1
    32     3    12    1
@<TRIPOS>MOLECULE
*****
 29 32 0 0 0
SMALL
GASTEIGER

@<TRIPOS>ATOM
      1 N          65.9378   92.3277   12.4859 N.ar    1  UNL1       -0.1822
      2 C          66.3712   92.6278   13.8902 C.ar    1  UNL1        0.2143
      3 N          67.5430   93.4749   14.2894 N.pl3   1  UNL1       -0.3275
      4 N          65.4271   91.9321   14.8254 N.ar    1  UNL1       -0.2126
      5 C          64.4102   91.2020   13.9990 C.ar    1  UNL1        0.1017
      6 C          63.2375   90.3461   14.3763 C.ar    1  UNL1        0.0208
      7 C          62.3806   89.7347   13.3077 C.ar    1  UNL1        0.0029
      8 C          62.6963   89.9793   11.8618 C.ar    1  UNL1        0.0174
      9 C          63.8689   90.8352   11.4845 C.ar    1  UNL1        0.0218
     10 C          64.7258   91.4465   12.5531 C.ar    1  UNL1        0.1026
     11 H          68.1070   93.8919   13.5985 H       1  UNL1        0.1451
     12 H          67.7481   93.6139   15.2422 H       1  UNL1        0.1451
     13 C          61.8393   89.3679   10.7932 C.2     1  UNL1        0.0872
     14 N          61.0158   90.1167    9.7876 N.2     1  UNL1       -0.2264
     15 C          60.3229   89.1120    8.9155 C.2     1  UNL1        0.1945
     16 N          60.7181   87.7423    9.3822 N.2     1  UNL1       -0.2415
     17 C          61.6553   87.9005   10.5427 C.3     1  UNL1        0.1669
     18 C          62.2959   86.7867   11.3167 C.ar    1  UNL1        0.0055
     19 C          63.1019   87.0933   12.5442 C.ar    1  UNL1       -0.0020
     20 C          63.7425   85.9796   13.3182 C.ar    1  UNL1       -0.0003
     21 C          63.5773   84.5592   12.8649 C.ar    1  UNL1       -0.0000
     22 C          62.7714   84.2527   11.6375 C.ar    1  UNL1       -0.0003
     23 C          62.1307   85.3665   10.8635 C.ar    1  UNL1       -0.0020
     24 S          66.6002   92.8221   11.2341 S.O2    1  UNL1        0.0667
     25 O          67.8436   92.0635   11.5925 O.2     1  UNL1       -0.1521
     26 O          65.3568   93.5806   10.8758 O.2     1  UNL1       -0.1521
     27 C          68.3160   92.4847    9.3126 C.3     1  UNL1        0.0275
     28 C          67.2626   93.3164    9.9823 C.3     1  UNL1        0.1516
     29 C          66.8715   94.6424    9.4004 C.3     1  UNL1        0.0275
@<TRIPOS>BOND
     1    27    28    1
     2    28    29    1
     3    28    24    1
     4    24    25    2
     5    24    26    2
     6    24     1    1
     7     1     2   ar
     8     2     3    1
     9     2     4   ar
    10     4     5   ar
    11     5     6   ar
    12     6     7   ar
    13     7     8   ar
    14     8    13    1
    15    13    14    2
    16    14    15    1
    17    15    16    2
    18    16    17    1
    19    17    18    1
    20    18    19   ar
    21    19    20   ar
    22    20    21   ar
    23    21    22   ar
    24    22    23   ar
    25     8     9   ar
    26     9    10   ar
    27    10     1   ar
    28    10     5   ar
    29    17    13    1
    30    23    18   ar
    31     3    11    1
    32     3    12    1
@<TRIPOS>MOLECULE
*****
 29 32 0 0 0
SMALL
GASTEIGER

@<TRIPOS>ATOM
      1 N          61.7319   86.9187   10.5699 N.ar    1  UNL1       -0.1822
      2 C          60.5132   87.0462    9.7048 C.ar    1  UNL1        0.2143
      3 N          59.7999   85.9213    9.0152 N.pl3   1  UNL1       -0.3275
      4 N          60.1331   88.4962    9.6504 N.ar    1  UNL1       -0.2126
      5 C          61.1169   89.2649   10.4819 C.ar    1  UNL1        0.1017
      6 C          61.2405   90.7266   10.7950 C.ar    1  UNL1        0.0208
      7 C          62.3524   91.2133   11.6764 C.ar    1  UNL1        0.0029
      8 C          63.3406   90.2383   12.2446 C.ar    1  UNL1        0.0174
      9 C          63.2169   88.7766   11.9315 C.ar    1  UNL1        0.0218
     10 C          62.1050   88.2899   11.0502 C.ar    1  UNL1        0.1026
     11 H          60.1274   84.9979    9.1119 H       1  UNL1        0.1451
     12 H          59.0041   86.1063    8.4658 H       1  UNL1        0.1451
     13 C          64.4525   90.7251   13.1260 C.2     1  UNL1        0.0872
     14 N          65.3449   91.8993   12.8522 N.2     1  UNL1       -0.2264
     15 C          66.3111   92.0231   13.9929 C.2     1  UNL1        0.1945
     16 N          66.0158   90.9254   14.9717 N.2     1  UNL1       -0.2415
     17 C          64.8671   90.1233   14.4359 C.3     1  UNL1        0.1669
     18 C          64.2427   88.9289   15.0944 C.ar    1  UNL1        0.0055
     19 C          64.5490   87.5494   14.5911 C.ar    1  UNL1       -0.0020
     20 C          63.9246   86.3551   15.2496 C.ar    1  UNL1       -0.0003
     21 C          62.9940   86.5401   16.4115 C.ar    1  UNL1       -0.0000
     22 C          62.6878   87.9196   16.9147 C.ar    1  UNL1       -0.0003
     23 C          63.3122   89.1139   16.2562 C.ar    1  UNL1       -0.0020
     24 S          62.4513   85.6438   10.8973 S.O2    1  UNL1        0.0667
     25 O          62.8587   85.5047    9.4603 O.2     1  UNL1       -0.1521
     26 O          62.0441   85.7829   12.3341 O.2     1  UNL1       -0.1521
     27 C          63.2157   83.8752   12.6402 C.3     1  UNL1        0.0275
     28 C          63.1708   84.3689   11.2245 C.3     1  UNL1        0.1516
     29 C          63.8453   83.5878   10.1360 C.3     1  UNL1        0.0275
@<TRIPOS>BOND
     1    27    28    1
     2    28    29    1
     3    28    24    1
     4    24    25    2
     5    24    26    2
     6    24     1    1
     7     1     2   ar
     8     2     3    1
     9     2     4   ar
    10     4     5   ar
    11     5     6   ar
    12     6     7   ar
    13     7     8   ar
    14     8    13    1
    15    13    14    2
    16    14    15    1
    17    15    16    2
    18    16    17    1
    19    17    18    1
    20    18    19   ar
    21    19    20   ar
    22    20    21   ar
    23    21    22   ar
    24    22    23   ar
    25     8     9   ar
    26     9    10   ar
    27    10     1   ar
    28    10     5   ar
    29    17    13    1
    30    23    18   ar
    31     3    11    1
    32     3    12    1
@<TRIPOS>MOLECULE
*****
 29 32 0 0 0
SMALL
GASTEIGER

@<TRIPOS>ATOM
      1 N          63.6542   89.2838   14.5572 N.ar    1  UNL1       -0.1822
      2 C          63.4946   89.7848   15.9620 C.ar    1  UNL1        0.2143
      3 N          63.4522   91.2231   16.3857 N.pl3   1  UNL1       -0.3275
      4 N          63.3850   88.5949   16.8687 N.ar    1  UNL1       -0.2126
      5 C          63.4767   87.3586   16.0243 C.ar    1  UNL1        0.1017
      6 C          63.4302   85.9001   16.3717 C.ar    1  UNL1        0.0208
      7 C          63.5501   84.8675   15.2905 C.ar    1  UNL1        0.0029
      8 C          63.7165   85.2932   13.8618 C.ar    1  UNL1        0.0174
      9 C          63.7630   86.7517   13.5144 C.ar    1  UNL1        0.0218
     10 C          63.6431   87.7844   14.5957 C.ar    1  UNL1        0.1026
     11 H          63.5329   91.9371   15.7127 H       1  UNL1        0.1451
     12 H          63.3438   91.4531   17.3368 H       1  UNL1        0.1451
     13 C          63.8364   84.2605   12.7805 C.2     1  UNL1        0.0872
     14 N          64.5693   82.9559   12.8847 N.2     1  UNL1       -0.2264
     15 C          64.4304   82.2401   11.5739 C.2     1  UNL1        0.1945
     16 N          63.6115   83.1024   10.6595 N.2     1  UNL1       -0.2415
     17 C          63.2445   84.3510   11.4053 C.3     1  UNL1        0.1669
     18 C          62.4287   85.4901   10.8697 C.ar    1  UNL1        0.0055
     19 C          62.6308   85.9593    9.4593 C.ar    1  UNL1       -0.0020
     20 C          61.8150   87.0985    8.9238 C.ar    1  UNL1       -0.0003
     21 C          60.7971   87.7685    9.7985 C.ar    1  UNL1       -0.0000
     22 C          60.5950   87.2992   11.2088 C.ar    1  UNL1       -0.0003
     23 C          61.4108   86.1601   11.7444 C.ar    1  UNL1       -0.0020
     24 S          63.7993   90.1332   13.3294 S.O2    1  UNL1        0.0667
     25 O          65.1475   90.5886   13.8037 O.2     1  UNL1       -0.1521
     26 O          62.4512   89.6779   12.8550 O.2     1  UNL1       -0.1521
     27 C          64.9524   92.0932   12.0727 C.3     1  UNL1        0.0275
     28 C          63.9445   90.9826   12.1016 C.3     1  UNL1        0.1516
     29 C          63.0818   90.7214   10.9026 C.3     1  UNL1        0.0275
@<TRIPOS>BOND
     1    27    28    1
     2    28    29    1
     3    28    24    1
     4    24    25    2
     5    24    26    2
     6    24     1    1
     7     1     2   ar
     8     2     3    1
     9     2     4   ar
    10     4     5   ar
    11     5     6   ar
    12     6     7   ar
    13     7     8   ar
    14     8    13    1
    15    13    14    2
    16    14    15    1
    17    15    16    2
    18    16    17    1
    19    17    18    1
    20    18    19   ar
    21    19    20   ar
    22    20    21   ar
    23    21    22   ar
    24    22    23   ar
    25     8     9   ar
    26     9    10   ar
    27    10     1   ar
    28    10     5   ar
    29    17    13    1
    30    23    18   ar
    31     3    11    1
    32     3    12    1
@<TRIPOS>MOLECULE
*****
 29 32 0 0 0
SMALL
GASTEIGER

@<TRIPOS>ATOM
      1 N          62.7245   87.1195   11.9049 N.ar    1  UNL1       -0.1822
      2 C          61.9070   86.9126   10.6644 C.ar    1  UNL1        0.2143
      3 N          61.3197   85.6120   10.2021 N.pl3   1  UNL1       -0.3275
      4 N          61.7798   88.2347    9.9672 N.ar    1  UNL1       -0.2126
      5 C          62.5187   89.2587   10.7769 C.ar    1  UNL1        0.1017
      6 C          62.7353   90.7296   10.5784 C.ar    1  UNL1        0.0208
      7 C          63.5358   91.5113   11.5775 C.ar    1  UNL1        0.0029
      8 C          64.1197   90.8220   12.7750 C.ar    1  UNL1        0.0174
      9 C          63.9030   89.3511   12.9735 C.ar    1  UNL1        0.0218
     10 C          63.1026   88.5694   11.9744 C.ar    1  UNL1        0.1026
     11 H          61.4589   84.7935   10.7311 H       1  UNL1        0.1451
     12 H          60.7952   85.5770    9.3698 H       1  UNL1        0.1451
     13 C          64.9202   91.6038   13.7741 C.2     1  UNL1        0.0872
     14 N          64.7655   91.5484   15.2651 N.2     1  UNL1       -0.2264
     15 C          65.7656   92.4886   15.8701 C.2     1  UNL1        0.1945
     16 N          66.5383   93.1250   14.7529 N.2     1  UNL1       -0.2415
     17 C          66.0158   92.5781   13.4576 C.3     1  UNL1        0.1669
     18 C          66.5034   92.9419   12.0865 C.ar    1  UNL1        0.0055
     19 C          67.4217   92.0147   11.3466 C.ar    1  UNL1       -0.0020
     20 C          67.9092   92.3784    9.9755 C.ar    1  UNL1       -0.0003
     21 C          67.4786   93.6692    9.3442 C.ar    1  UNL1       -0.0000
     22 C          66.5604   94.5962   10.0840 C.ar    1  UNL1       -0.0003
     23 C          66.0728   94.2325   11.4551 C.ar    1  UNL1       -0.0020
     24 S          63.0983   86.0622   12.9010 S.O2    1  UNL1        0.0667
     25 O          63.7571   87.1023   13.7578 O.2     1  UNL1       -0.1521
     26 O          62.4396   85.0221   12.0442 O.2     1  UNL1       -0.1521
     27 C          62.5562   83.8411   14.1352 C.3     1  UNL1        0.0275
     28 C          63.4722   85.0048   13.8972 C.3     1  UNL1        0.1516
     29 C          64.7621   85.1113   14.6553 C.3     1  UNL1        0.0275
@<TRIPOS>BOND
     1    27    28    1
     2    28    29    1
     3    28    24    1
     4    24    25    2
     5    24    26    2
     6    24     1    1
     7     1     2   ar
     8     2     3    1
     9     2     4   ar
    10     4     5   ar
    11     5     6   ar
    12     6     7   ar
    13     7     8   ar
    14     8    13    1
    15    13    14    2
    16    14    15    1
    17    15    16    2
    18    16    17    1
    19    17    18    1
    20    18    19   ar
    21    19    20   ar
    22    20    21   ar
    23    21    22   ar
    24    22    23   ar
    25     8     9   ar
    26     9    10   ar
    27    10     1   ar
    28    10     5   ar
    29    17    13    1
    30    23    18   ar
    31     3    11    1
    32     3    12    1
@<TRIPOS>MOLECULE
*****
 29 32 0 0 0
SMALL
GASTEIGER

@<TRIPOS>ATOM
      1 N          63.6765   85.1766   14.0459 N.ar    1  UNL1       -0.1822
      2 C          64.5259   83.9411   14.0903 C.ar    1  UNL1        0.2143
      3 N          65.2026   83.3795   15.3055 N.pl3   1  UNL1       -0.3275
      4 N          64.5799   83.3657   12.7061 N.ar    1  UNL1       -0.2126
      5 C          63.7638   84.2457   11.8062 C.ar    1  UNL1        0.1017
      6 C          63.4569   84.1724   10.3398 C.ar    1  UNL1        0.0208
      7 C          62.5918   85.2183    9.7015 C.ar    1  UNL1        0.0029
      8 C          62.0335   86.3375   10.5295 C.ar    1  UNL1        0.0174
      9 C          62.3403   86.4107   11.9960 C.ar    1  UNL1        0.0218
     10 C          63.2055   85.3648   12.6343 C.ar    1  UNL1        0.1026
     11 H          65.1073   83.8314   16.1750 H       1  UNL1        0.1451
     12 H          65.7420   82.5591   15.2337 H       1  UNL1        0.1451
     13 C          61.1683   87.3834    9.8911 C.2     1  UNL1        0.0872
     14 N          60.0040   87.1288    8.9802 N.2     1  UNL1       -0.2264
     15 C          59.4316   88.4555    8.5776 C.2     1  UNL1        0.1945
     16 N          60.2421   89.5301    9.2398 N.2     1  UNL1       -0.2415
     17 C          61.3154   88.8675   10.0515 C.3     1  UNL1        0.1669
     18 C          62.3535   89.5663   10.8785 C.ar    1  UNL1        0.0055
     19 C          62.6397   89.0986   12.2748 C.ar    1  UNL1       -0.0020
     20 C          63.6778   89.7975   13.1018 C.ar    1  UNL1       -0.0003
     21 C          64.4298   90.9640   12.5326 C.ar    1  UNL1       -0.0000
     22 C          64.1436   91.4316   11.1364 C.ar    1  UNL1       -0.0003
     23 C          63.1054   90.7328   10.3094 C.ar    1  UNL1       -0.0020
     24 S          63.3546   86.0675   15.2090 S.O2    1  UNL1        0.0667
     25 O          62.3522   85.0651   15.6994 O.2     1  UNL1       -0.1521
     26 O          64.3569   87.0698   14.7187 O.2     1  UNL1       -0.1521
     27 C          62.4675   86.3723   17.6319 C.3     1  UNL1        0.0275
     28 C          63.0326   86.9583   16.3721 C.3     1  UNL1        0.1516
     29 C          63.2759   88.4353   16.2754 C.3     1  UNL1        0.0275
@<TRIPOS>BOND
     1    27    28    1
     2    28    29    1
     3    28    24    1
     4    24    25    2
     5    24    26    2
     6    24     1    1
     7     1     2   ar
     8     2     3    1
     9     2     4   ar
    10     4     5   ar
    11     5     6   ar
    12     6     7   ar
    13     7     8   ar
    14     8    13    1
    15    13    14    2
    16    14    15    1
    17    15    16    2
    18    16    17    1
    19    17    18    1
    20    18    19   ar
    21    19    20   ar
    22    20    21   ar
    23    21    22   ar
    24    22    23   ar
    25     8     9   ar
    26     9    10   ar
    27    10     1   ar
    28    10     5   ar
    29    17    13    1
    30    23    18   ar
    31     3    11    1
    32     3    12    1
@<TRIPOS>MOLECULE
*****
 29 32 0 0 0
SMALL
GASTEIGER

@<TRIPOS>ATOM
      1 N          63.0751   89.1164   12.9477 N.ar    1  UNL1       -0.1822
      2 C          63.8561   90.1435   13.7126 C.ar    1  UNL1        0.2143
      3 N          63.7405   91.6314   13.5619 N.pl3   1  UNL1       -0.3275
      4 N          64.7732   89.4213   14.6547 N.ar    1  UNL1       -0.2126
      5 C          64.5589   87.9480   14.4720 C.ar    1  UNL1        0.1017
      6 C          65.1838   86.7536   15.1300 C.ar    1  UNL1        0.0208
      7 C          64.7592   85.3709   14.7329 C.ar    1  UNL1        0.0029
      8 C          63.7098   85.1825   13.6779 C.ar    1  UNL1        0.0174
      9 C          63.0848   86.3768   13.0199 C.ar    1  UNL1        0.0218
     10 C          63.5094   87.7595   13.4170 C.ar    1  UNL1        0.1026
     11 H          63.1060   92.0126   12.9128 H       1  UNL1        0.1451
     12 H          64.2990   92.2268   14.1122 H       1  UNL1        0.1451
     13 C          63.2852   83.7996   13.2809 C.2     1  UNL1        0.0872
     14 N          63.3031   82.5850   14.1610 N.2     1  UNL1       -0.2264
     15 C          62.7972   81.4234   13.3582 C.2     1  UNL1        0.1945
     16 N          62.4666   81.9200   11.9819 N.2     1  UNL1       -0.2415
     17 C          62.7682   83.3886   11.9341 C.3     1  UNL1        0.1669
     18 C          62.5850   84.2881   10.7479 C.ar    1  UNL1        0.0055
     19 C          63.4818   84.1466    9.5537 C.ar    1  UNL1       -0.0020
     20 C          63.2986   85.0461    8.3675 C.ar    1  UNL1       -0.0003
     21 C          62.2187   86.0872    8.3753 C.ar    1  UNL1       -0.0000
     22 C          61.3220   86.2287    9.5694 C.ar    1  UNL1       -0.0003
     23 C          61.5052   85.3292   10.7556 C.ar    1  UNL1       -0.0020
     24 S          62.0412   89.3970   11.8977 S.O2    1  UNL1        0.0667
     25 O          61.0298   89.6789   12.9689 O.2     1  UNL1       -0.1521
     26 O          63.0526   89.1151   10.8265 O.2     1  UNL1       -0.1521
     27 C          61.3566   89.5407    9.3955 C.3     1  UNL1        0.0275
     28 C          61.0073   89.6776   10.8478 C.3     1  UNL1        0.1516
     29 C          59.6239   90.0951   11.2503 C.3     1  UNL1        0.0275
@<TRIPOS>BOND
     1    27    28    1
     2    28    29    1
     3    28    24    1
     4    24    25    2
     5    24    26    2
     6    24     1    1
     7     1     2   ar
     8     2     3    1
     9     2     4   ar
    10     4     5   ar
    11     5     6   ar
    12     6     7   ar
    13     7     8   ar
    14     8    13    1
    15    13    14    2
    16    14    15    1
    17    15    16    2
    18    16    17    1
    19    17    18    1
    20    18    19   ar
    21    19    20   ar
    22    20    21   ar
    23    21    22   ar
    24    22    23   ar
    25     8     9   ar
    26     9    10   ar
    27    10     1   ar
    28    10     5   ar
    29    17    13    1
    30    23    18   ar
    31     3    11    1
    32     3    12    1
