@<TRIPOS>MOLECULE
*****
 37 40 0 0 0
SMALL
GASTEIGER

@<TRIPOS>ATOM
      1 C          62.0955   87.5888   10.9031 C.3     1  UNL1        0.0963
      2 C          61.1203   88.0327    9.8534 C.3     1  UNL1        0.0126
      3 C          61.0614   89.4752    9.4463 C.3     1  UNL1        0.0220
      4 C          61.9777   90.4738   10.0889 C.3     1  UNL1        0.0922
      5 N          62.9529   90.0300   11.1387 N.pl3   1  UNL1       -0.2926
      6 C          63.0118   88.5875   11.5458 C.3     1  UNL1        0.1012
      7 C          63.8692   91.0287   11.7814 C.ar    1  UNL1        0.1361
      8 C          64.5986   92.0302   10.9358 C.ar    1  UNL1        0.0686
      9 C          65.5148   93.0289   11.5784 C.ar    1  UNL1        0.1362
     10 N          65.7018   93.0261   13.0668 N.ar    1  UNL1       -0.2083
     11 C          64.9725   92.0246   13.9124 C.ar    1  UNL1        0.2374
     12 N          64.0561   91.0259   13.2697 N.ar    1  UNL1       -0.2083
     13 N          66.2442   94.0304   10.7328 N.pl3   1  UNL1       -0.2903
     14 C          66.0615   95.4980   10.9830 C.3     1  UNL1        0.1093
     15 C          66.7909   96.4995   10.1374 C.3     1  UNL1        0.0904
     16 N          67.7029   96.0334    9.0416 N.3     1  UNL1       -0.2946
     17 C          67.8855   94.5657    8.7913 C.3     1  UNL1        0.0904
     18 C          67.1562   93.5642    9.6369 C.3     1  UNL1        0.1093
     19 H          68.6267   96.4146    9.2453 H       1  UNL1        0.1233
     20 C          65.1594   92.0218   15.4007 C.3     1  UNL1        0.4524
     21 F          65.3463   92.0190   16.8890 F       1  UNL1       -0.1632
     22 F          66.2063   93.0881   15.2712 F       1  UNL1       -0.1632
     23 F          64.1124   90.9555   15.5301 F       1  UNL1       -0.1632
     24 N          63.1226   85.2169   10.6403 N.am    1  UNL1       -0.3040
     25 C          62.1544   86.1463   11.3102 C.2     1  UNL1        0.2237
     26 O          61.2451   85.6333   12.3872 O.2     1  UNL1       -0.2751
     27 H          63.7194   85.5537    9.9334 H       1  UNL1        0.1494
     28 C          63.1815   83.7744   11.0474 C.3     1  UNL1        0.0941
     29 C          63.9394   83.3727   12.2779 C.3     1  UNL1        0.0492
     30 C          63.1299   85.4376   16.1934 C.ar    1  UNL1        0.1491
     31 C          64.1962   85.9595   15.2767 C.ar    1  UNL1        0.0293
     32 C          64.4661   85.2712   13.9715 C.ar    1  UNL1       -0.0004
     33 C          63.6696   84.0610   13.5830 C.ar    1  UNL1       -0.0013
     34 C          62.6032   83.5391   14.4998 C.ar    1  UNL1        0.0954
     35 N          62.3334   84.2274   15.8049 N.ar    1  UNL1       -0.2339
     36 N          62.5901   86.8141   18.8037 N.1     1  UNL1       -0.1893
     37 C          62.8600   86.1258   17.4985 C.1     1  UNL1        0.1198
@<TRIPOS>BOND
     1    36    37    3
     2    37    30    1
     3    30    31   ar
     4    31    32   ar
     5    32    33   ar
     6    33    29    1
     7    29    28    1
     8    28    24    1
     9    24    25   am
    10    25    26    2
    11     1    25    1
    12     1     2    1
    13     2     3    1
    14     3     4    1
    15     4     5    1
    16     5     7    1
    17     7     8   ar
    18     8     9   ar
    19     9    13    1
    20    13    14    1
    21    14    15    1
    22    15    16    1
    23    16    17    1
    24    17    18    1
    25     9    10   ar
    26    10    11   ar
    27    11    20    1
    28    20    21    1
    29    20    22    1
    30    20    23    1
    31    11    12   ar
    32     5     6    1
    33    33    34   ar
    34    34    35   ar
    35    35    30   ar
    36     6     1    1
    37    12     7   ar
    38    18    13    1
    39    24    27    1
    40    16    19    1
@<TRIPOS>MOLECULE
*****
 37 40 0 0 0
SMALL
GASTEIGER

@<TRIPOS>ATOM
      1 C          60.5507   88.1487    8.9744 C.3     1  UNL1        0.0963
      2 C          60.6742   86.6946    9.3208 C.3     1  UNL1        0.0126
      3 C          61.5875   86.2627   10.4296 C.3     1  UNL1        0.0220
      4 C          62.3774   87.2849   11.1919 C.3     1  UNL1        0.0922
      5 N          62.2539   88.7392   10.8454 N.pl3   1  UNL1       -0.2926
      6 C          61.3405   89.1711    9.7367 C.3     1  UNL1        0.1012
      7 C          63.0437   89.7615   11.6077 C.ar    1  UNL1        0.1361
      8 C          63.8872   90.7595   10.8712 C.ar    1  UNL1        0.0686
      9 C          64.6770   91.7817   11.6335 C.ar    1  UNL1        0.1362
     10 N          64.6233   91.8060   13.1324 N.ar    1  UNL1       -0.2083
     11 C          63.7798   90.8080   13.8689 C.ar    1  UNL1        0.2374
     12 N          62.9899   89.7857   13.1065 N.ar    1  UNL1       -0.2083
     13 N          65.5205   92.7797   10.8969 N.pl3   1  UNL1       -0.2903
     14 C          65.1240   94.2262   10.8754 C.3     1  UNL1        0.1093
     15 C          65.9676   95.2242   10.1388 C.3     1  UNL1        0.0904
     16 N          67.2076   94.7757    9.4239 N.3     1  UNL1       -0.2946
     17 C          67.6042   93.3292    9.4455 C.3     1  UNL1        0.0904
     18 C          66.7606   92.3312   10.1820 C.3     1  UNL1        0.1093
     19 H          67.9849   95.3001    9.8254 H       1  UNL1        0.1233
     20 C          63.7261   90.8323   15.3677 C.3     1  UNL1        0.4524
     21 F          63.6723   90.8566   16.8666 F       1  UNL1       -0.1632
     22 F          62.6543   89.7832   15.3463 F       1  UNL1       -0.1632
     23 F          64.7979   91.8815   15.3891 F       1  UNL1       -0.1632
     24 N          60.0224   89.7296    6.9814 N.am    1  UNL1       -0.3040
     25 C          59.6374   88.5806    7.8657 C.2     1  UNL1        0.2237
     26 O          58.3391   87.8637    7.6412 O.2     1  UNL1       -0.2751
     27 H          60.8745   90.2001    7.1287 H       1  UNL1        0.1494
     28 C          59.1090   90.1615    5.8727 C.3     1  UNL1        0.0941
     29 C          59.1728   91.5671    5.3530 C.3     1  UNL1        0.0492
     30 C          62.2413   92.6845    2.2569 C.ar    1  UNL1        0.1491
     31 C          62.5576   91.6363    3.2822 C.ar    1  UNL1        0.0293
     32 C          61.5348   91.2638    4.3142 C.ar    1  UNL1       -0.0004
     33 C          60.1956   91.9396    4.3210 C.ar    1  UNL1       -0.0013
     34 C          59.8793   92.9877    3.2957 C.ar    1  UNL1        0.0954
     35 N          60.9022   93.3602    2.2637 N.ar    1  UNL1       -0.2339
     36 N          64.2870   93.4294    0.1929 N.1     1  UNL1       -0.1893
     37 C          63.2641   93.0569    1.2249 C.1     1  UNL1        0.1198
@<TRIPOS>BOND
     1    36    37    3
     2    37    30    1
     3    30    31   ar
     4    31    32   ar
     5    32    33   ar
     6    33    29    1
     7    29    28    1
     8    28    24    1
     9    24    25   am
    10    25    26    2
    11     1    25    1
    12     1     2    1
    13     2     3    1
    14     3     4    1
    15     4     5    1
    16     5     7    1
    17     7     8   ar
    18     8     9   ar
    19     9    13    1
    20    13    14    1
    21    14    15    1
    22    15    16    1
    23    16    17    1
    24    17    18    1
    25     9    10   ar
    26    10    11   ar
    27    11    20    1
    28    20    21    1
    29    20    22    1
    30    20    23    1
    31    11    12   ar
    32     5     6    1
    33    33    34   ar
    34    34    35   ar
    35    35    30   ar
    36     6     1    1
    37    12     7   ar
    38    18    13    1
    39    24    27    1
    40    16    19    1
@<TRIPOS>MOLECULE
*****
 37 40 0 0 0
SMALL
GASTEIGER

@<TRIPOS>ATOM
      1 C          62.4307   88.1900   11.8312 C.3     1  UNL1        0.0963
      2 C          61.1753   88.6502   11.1514 C.3     1  UNL1        0.0126
      3 C          60.9862   90.1029   10.8292 C.3     1  UNL1        0.0220
      4 C          62.0525   91.0954   11.1868 C.3     1  UNL1        0.0922
      5 N          63.3080   90.6352   11.8666 N.pl3   1  UNL1       -0.2926
      6 C          63.4970   89.1825   12.1888 C.3     1  UNL1        0.1012
      7 C          64.3743   91.6277   12.2242 C.ar    1  UNL1        0.1361
      8 C          64.9344   92.5384   11.1722 C.ar    1  UNL1        0.0686
      9 C          66.0007   93.5309   11.5297 C.ar    1  UNL1        0.1362
     10 N          66.5069   93.6127   12.9394 N.ar    1  UNL1       -0.2083
     11 C          65.9468   92.7020   13.9915 C.ar    1  UNL1        0.2374
     12 N          64.8804   91.7095   13.6338 N.ar    1  UNL1       -0.2083
     13 N          66.5608   94.4417   10.4777 N.pl3   1  UNL1       -0.2903
     14 C          66.3500   95.9233   10.5787 C.3     1  UNL1        0.1093
     15 C          66.9102   96.8341    9.5267 C.3     1  UNL1        0.0904
     16 N          67.6811   96.2632    8.3736 N.3     1  UNL1       -0.2946
     17 C          67.8920   94.7814    8.2725 C.3     1  UNL1        0.0904
     18 C          67.3318   93.8707    9.3246 C.3     1  UNL1        0.1093
     19 H          68.6066   96.6913    8.3974 H       1  UNL1        0.1233
     20 C          66.4529   92.7838   15.4011 C.3     1  UNL1        0.4524
     21 F          66.9591   92.8655   16.8108 F       1  UNL1       -0.1632
     22 F          67.4189   93.8559   14.9921 F       1  UNL1       -0.1632
     23 F          65.4870   91.7116   15.8101 F       1  UNL1       -0.1632
     24 N          63.5005   86.3313   13.2978 N.am    1  UNL1       -0.3040
     25 C          62.6197   86.7372   12.1534 C.2     1  UNL1        0.2237
     26 O          61.9281   85.6905   11.3313 O.2     1  UNL1       -0.2751
     27 H          63.9544   87.0183   13.8374 H       1  UNL1        0.1494
     28 C          63.6896   84.8786   13.6200 C.3     1  UNL1        0.0941
     29 C          62.5087   83.9538   13.6349 C.3     1  UNL1        0.0492
     30 C          62.7676   79.9412   11.6145 C.ar    1  UNL1        0.1491
     31 C          63.1378   81.1849   10.8623 C.ar    1  UNL1        0.0293
     32 C          63.0515   82.5225   11.5357 C.ar    1  UNL1       -0.0004
     33 C          62.5950   82.6162   12.9615 C.ar    1  UNL1       -0.0013
     34 C          62.2248   81.3725   13.7137 C.ar    1  UNL1        0.0954
     35 N          62.3111   80.0349   13.0403 N.ar    1  UNL1       -0.2339
     36 N          62.9402   77.2661   10.2676 N.1     1  UNL1       -0.1893
     37 C          62.8539   78.6036   10.9411 C.1     1  UNL1        0.1198
@<TRIPOS>BOND
     1    36    37    3
     2    37    30    1
     3    30    31   ar
     4    31    32   ar
     5    32    33   ar
     6    33    29    1
     7    29    28    1
     8    28    24    1
     9    24    25   am
    10    25    26    2
    11     1    25    1
    12     1     2    1
    13     2     3    1
    14     3     4    1
    15     4     5    1
    16     5     7    1
    17     7     8   ar
    18     8     9   ar
    19     9    13    1
    20    13    14    1
    21    14    15    1
    22    15    16    1
    23    16    17    1
    24    17    18    1
    25     9    10   ar
    26    10    11   ar
    27    11    20    1
    28    20    21    1
    29    20    22    1
    30    20    23    1
    31    11    12   ar
    32     5     6    1
    33    33    34   ar
    34    34    35   ar
    35    35    30   ar
    36     6     1    1
    37    12     7   ar
    38    18    13    1
    39    24    27    1
    40    16    19    1
@<TRIPOS>MOLECULE
*****
 37 40 0 0 0
SMALL
GASTEIGER

@<TRIPOS>ATOM
      1 C          63.4823   88.4576   16.1314 C.3     1  UNL1        0.0963
      2 C          63.1463   88.0773   17.5429 C.3     1  UNL1        0.0126
      3 C          62.7208   86.6744   17.8606 C.3     1  UNL1        0.0220
      4 C          62.6312   85.6519   16.7668 C.3     1  UNL1        0.0922
      5 N          62.9672   86.0323   15.3551 N.pl3   1  UNL1       -0.2926
      6 C          63.3927   87.4351   15.0375 C.3     1  UNL1        0.1012
      7 C          62.8776   85.0098   14.2613 C.ar    1  UNL1        0.1361
      8 C          62.6574   85.4460   12.8431 C.ar    1  UNL1        0.0686
      9 C          62.5678   84.4235   11.7493 C.ar    1  UNL1        0.1362
     10 N          62.6984   82.9647   12.0737 N.ar    1  UNL1       -0.2083
     11 C          62.9186   82.5286   13.4919 C.ar    1  UNL1        0.2374
     12 N          63.0081   83.5512   14.5857 N.ar    1  UNL1       -0.2083
     13 N          62.3477   84.8596   10.3311 N.pl3   1  UNL1       -0.2903
     14 C          63.2612   84.3718    9.2460 C.3     1  UNL1        0.1093
     15 C          63.0411   84.8080    7.8278 C.3     1  UNL1        0.0904
     16 N          61.9074   85.7319    7.4947 N.3     1  UNL1       -0.2946
     17 C          60.9938   86.2198    8.5798 C.3     1  UNL1        0.0904
     18 C          61.2140   85.7837    9.9980 C.3     1  UNL1        0.1093
     19 H          61.3230   85.2473    6.8135 H       1  UNL1        0.1233
     20 C          63.0491   81.0699   13.8163 C.3     1  UNL1        0.4524
     21 F          63.1796   79.6112   14.1407 F       1  UNL1       -0.1632
     22 F          61.7327   81.1117   14.5340 F       1  UNL1       -0.1632
     23 F          64.3656   81.0282   13.0986 F       1  UNL1       -0.1632
     24 N          64.7204   90.1373   14.5835 N.am    1  UNL1       -0.3040
     25 C          63.9078   89.8605   15.8137 C.2     1  UNL1        0.2237
     26 O          63.5208   90.9864   16.7260 O.2     1  UNL1       -0.2751
     27 H          64.9744   89.3983   13.9847 H       1  UNL1        0.1494
     28 C          65.1460   91.5402   14.2658 C.3     1  UNL1        0.0941
     29 C          66.4916   91.7954   13.6543 C.3     1  UNL1        0.0492
     30 C          66.9016   94.7185   10.2576 C.ar    1  UNL1        0.1491
     31 C          67.2952   93.2841   10.0643 C.ar    1  UNL1        0.0293
     32 C          67.1586   92.3097   11.1965 C.ar    1  UNL1       -0.0004
     33 C          66.6283   92.7698   12.5221 C.ar    1  UNL1       -0.0013
     34 C          66.2346   94.2042   12.7154 C.ar    1  UNL1        0.0954
     35 N          66.3713   95.1786   11.5831 N.ar    1  UNL1       -0.2339
     36 N          67.1749   96.6672    7.9931 N.1     1  UNL1       -0.1893
     37 C          67.0382   95.6929    9.1254 C.1     1  UNL1        0.1198
@<TRIPOS>BOND
     1    36    37    3
     2    37    30    1
     3    30    31   ar
     4    31    32   ar
     5    32    33   ar
     6    33    29    1
     7    29    28    1
     8    28    24    1
     9    24    25   am
    10    25    26    2
    11     1    25    1
    12     1     2    1
    13     2     3    1
    14     3     4    1
    15     4     5    1
    16     5     7    1
    17     7     8   ar
    18     8     9   ar
    19     9    13    1
    20    13    14    1
    21    14    15    1
    22    15    16    1
    23    16    17    1
    24    17    18    1
    25     9    10   ar
    26    10    11   ar
    27    11    20    1
    28    20    21    1
    29    20    22    1
    30    20    23    1
    31    11    12   ar
    32     5     6    1
    33    33    34   ar
    34    34    35   ar
    35    35    30   ar
    36     6     1    1
    37    12     7   ar
    38    18    13    1
    39    24    27    1
    40    16    19    1
@<TRIPOS>MOLECULE
*****
 37 40 0 0 0
SMALL
GASTEIGER

@<TRIPOS>ATOM
      1 C          63.4661   85.5969   15.6268 C.3     1  UNL1        0.0963
      2 C          62.9202   85.8179   17.0064 C.3     1  UNL1        0.0126
      3 C          62.8247   87.2082   17.5613 C.3     1  UNL1        0.0220
      4 C          63.2750   88.3775   16.7368 C.3     1  UNL1        0.0922
      5 N          63.8209   88.1565   15.3572 N.pl3   1  UNL1       -0.2926
      6 C          63.9164   86.7663   14.8022 C.3     1  UNL1        0.1012
      7 C          64.2712   89.3258   14.5326 C.ar    1  UNL1        0.1361
      8 C          65.4646   90.1286   14.9584 C.ar    1  UNL1        0.0686
      9 C          65.9150   91.2979   14.1339 C.ar    1  UNL1        0.1362
     10 N          65.1719   91.6644   12.8834 N.ar    1  UNL1       -0.2083
     11 C          63.9785   90.8616   12.4576 C.ar    1  UNL1        0.2374
     12 N          63.5282   89.6923   13.2822 N.ar    1  UNL1       -0.2083
     13 N          67.1084   92.1007   14.5597 N.pl3   1  UNL1       -0.2903
     14 C          66.9808   93.1041   15.6673 C.3     1  UNL1        0.1093
     15 C          68.1742   93.9069   16.0931 C.3     1  UNL1        0.0904
     16 N          69.4951   93.7063   15.4113 N.3     1  UNL1       -0.2946
     17 C          69.6227   92.7028   14.3036 C.3     1  UNL1        0.0904
     18 C          68.4293   91.9000   13.8778 C.3     1  UNL1        0.1093
     19 H          70.1611   93.4333   16.1341 H       1  UNL1        0.1233
     20 C          63.2354   91.2281   11.2072 C.3     1  UNL1        0.4524
     21 F          62.4923   91.5946    9.9568 F       1  UNL1       -0.1632
     22 F          62.0091   90.5450   11.7358 F       1  UNL1       -0.1632
     23 F          64.4617   91.9112   10.6786 F       1  UNL1       -0.1632
     24 N          64.4921   83.9165   13.9317 N.am    1  UNL1       -0.3040
     25 C          63.5616   84.2067   15.0719 C.2     1  UNL1        0.2237
     26 O          62.7266   83.1065   15.6571 O.2     1  UNL1       -0.2751
     27 H          65.0402   84.6386   13.5476 H       1  UNL1        0.1494
     28 C          64.5877   82.5263   13.3767 C.3     1  UNL1        0.0941
     29 C          64.1849   82.2560   11.9573 C.3     1  UNL1        0.0492
     30 C          62.0820   85.4387    9.5702 C.ar    1  UNL1        0.1491
     31 C          63.1647   84.6173    8.9352 C.ar    1  UNL1        0.0293
     32 C          63.8656   83.5564    9.7309 C.ar    1  UNL1       -0.0004
     33 C          63.4839   83.3169   11.1616 C.ar    1  UNL1       -0.0013
     34 C          62.4013   84.1383   11.7966 C.ar    1  UNL1        0.0954
     35 N          61.7004   85.1992   11.0009 N.ar    1  UNL1       -0.2339
     36 N          60.6801   87.5605    7.9788 N.1     1  UNL1       -0.1893
     37 C          61.3811   86.4996    8.7745 C.1     1  UNL1        0.1198
@<TRIPOS>BOND
     1    36    37    3
     2    37    30    1
     3    30    31   ar
     4    31    32   ar
     5    32    33   ar
     6    33    29    1
     7    29    28    1
     8    28    24    1
     9    24    25   am
    10    25    26    2
    11     1    25    1
    12     1     2    1
    13     2     3    1
    14     3     4    1
    15     4     5    1
    16     5     7    1
    17     7     8   ar
    18     8     9   ar
    19     9    13    1
    20    13    14    1
    21    14    15    1
    22    15    16    1
    23    16    17    1
    24    17    18    1
    25     9    10   ar
    26    10    11   ar
    27    11    20    1
    28    20    21    1
    29    20    22    1
    30    20    23    1
    31    11    12   ar
    32     5     6    1
    33    33    34   ar
    34    34    35   ar
    35    35    30   ar
    36     6     1    1
    37    12     7   ar
    38    18    13    1
    39    24    27    1
    40    16    19    1
@<TRIPOS>MOLECULE
*****
 37 40 0 0 0
SMALL
GASTEIGER

@<TRIPOS>ATOM
      1 C          63.1694   84.1451   10.1206 C.3     1  UNL1        0.0963
      2 C          63.0774   83.9932    8.6312 C.3     1  UNL1        0.0126
      3 C          62.6451   85.1532    7.7842 C.3     1  UNL1        0.0220
      4 C          62.3046   86.4652    8.4267 C.3     1  UNL1        0.0922
      5 N          62.3965   86.6171    9.9162 N.pl3   1  UNL1       -0.2926
      6 C          62.8289   85.4571   10.7631 C.3     1  UNL1        0.1012
      7 C          62.0561   87.9291   10.5587 C.ar    1  UNL1        0.1361
      8 C          63.1318   88.9450   10.8052 C.ar    1  UNL1        0.0686
      9 C          62.7914   90.2570   11.4477 C.ar    1  UNL1        0.1362
     10 N          61.3751   90.5531   11.8437 N.ar    1  UNL1       -0.2083
     11 C          60.2994   89.5371   11.5972 C.ar    1  UNL1        0.2374
     12 N          60.6400   88.2251   10.9546 N.ar    1  UNL1       -0.2083
     13 N          63.8671   91.2729   11.6942 N.pl3   1  UNL1       -0.2903
     14 C          64.3396   92.1517   10.5743 C.3     1  UNL1        0.1093
     15 C          65.4153   93.1676   10.8208 C.3     1  UNL1        0.0904
     16 N          66.0185   93.3047   12.1873 N.3     1  UNL1       -0.2946
     17 C          65.5460   92.4258   13.3073 C.3     1  UNL1        0.0904
     18 C          64.4703   91.4099   13.0608 C.3     1  UNL1        0.1093
     19 H          65.8619   94.2683   12.4830 H       1  UNL1        0.1233
     20 C          58.8833   89.8332   11.9931 C.3     1  UNL1        0.4524
     21 F          57.4671   90.1292   12.3891 F       1  UNL1       -0.1632
     22 F          58.7624   88.4609   12.5866 F       1  UNL1       -0.1632
     23 F          59.0042   91.2054   11.3996 F       1  UNL1       -0.1632
     24 N          62.5778   82.1637   11.6937 N.am    1  UNL1       -0.3040
     25 C          63.6017   82.9850   10.9675 C.2     1  UNL1        0.2237
     26 O          65.0579   82.6462   11.0884 O.2     1  UNL1       -0.2751
     27 H          61.6220   82.3861   11.6144 H       1  UNL1        0.1494
     28 C          63.0102   81.0037   12.5406 C.3     1  UNL1        0.0941
     29 C          63.5412   81.2412   13.9232 C.3     1  UNL1        0.0492
     30 C          63.3162   85.3498   15.7449 C.ar    1  UNL1        0.1491
     31 C          64.6079   84.8571   15.1631 C.ar    1  UNL1        0.0293
     32 C          64.6830   83.4876   14.5558 C.ar    1  UNL1       -0.0004
     33 C          63.4662   82.6108   14.5304 C.ar    1  UNL1       -0.0013
     34 C          62.1745   83.1035   15.1122 C.ar    1  UNL1        0.0954
     35 N          62.0994   84.4730   15.7194 N.ar    1  UNL1       -0.2339
     36 N          63.1662   88.0889   16.9593 N.1     1  UNL1       -0.1893
     37 C          63.2412   86.7194   16.3521 C.1     1  UNL1        0.1198
@<TRIPOS>BOND
     1    36    37    3
     2    37    30    1
     3    30    31   ar
     4    31    32   ar
     5    32    33   ar
     6    33    29    1
     7    29    28    1
     8    28    24    1
     9    24    25   am
    10    25    26    2
    11     1    25    1
    12     1     2    1
    13     2     3    1
    14     3     4    1
    15     4     5    1
    16     5     7    1
    17     7     8   ar
    18     8     9   ar
    19     9    13    1
    20    13    14    1
    21    14    15    1
    22    15    16    1
    23    16    17    1
    24    17    18    1
    25     9    10   ar
    26    10    11   ar
    27    11    20    1
    28    20    21    1
    29    20    22    1
    30    20    23    1
    31    11    12   ar
    32     5     6    1
    33    33    34   ar
    34    34    35   ar
    35    35    30   ar
    36     6     1    1
    37    12     7   ar
    38    18    13    1
    39    24    27    1
    40    16    19    1
@<TRIPOS>MOLECULE
*****
 37 40 0 0 0
SMALL
GASTEIGER

@<TRIPOS>ATOM
      1 C          63.7499   83.1054   11.8982 C.3     1  UNL1        0.0963
      2 C          64.0551   81.8591   12.6750 C.3     1  UNL1        0.0126
      3 C          64.2558   81.9309   14.1598 C.3     1  UNL1        0.0220
      4 C          64.1515   83.2492   14.8677 C.3     1  UNL1        0.0922
      5 N          63.8463   84.4956   14.0910 N.pl3   1  UNL1       -0.2926
      6 C          63.6456   84.4238   12.6062 C.3     1  UNL1        0.1012
      7 C          63.7420   85.8139   14.7990 C.ar    1  UNL1        0.1361
      8 C          64.0610   87.0847   14.0688 C.ar    1  UNL1        0.0686
      9 C          63.9566   88.4030   14.7767 C.ar    1  UNL1        0.1362
     10 N          63.5333   88.4504   16.2150 N.ar    1  UNL1       -0.2083
     11 C          63.2143   87.1796   16.9453 C.ar    1  UNL1        0.2374
     12 N          63.3187   85.8613   16.2372 N.ar    1  UNL1       -0.2083
     13 N          64.2756   89.6738   14.0465 N.pl3   1  UNL1       -0.2903
     14 C          65.3228   90.6043   14.5827 C.3     1  UNL1        0.1093
     15 C          65.6417   91.8752   13.8525 C.3     1  UNL1        0.0904
     16 N          64.9136   92.2155   12.5861 N.3     1  UNL1       -0.2946
     17 C          63.8663   91.2850   12.0498 C.3     1  UNL1        0.0904
     18 C          63.5474   90.0141   12.7800 C.3     1  UNL1        0.1093
     19 H          65.6205   92.3145   11.8575 H       1  UNL1        0.1233
     20 C          62.7910   87.2270   18.3835 C.3     1  UNL1        0.4524
     21 F          62.3676   87.2743   19.8218 F       1  UNL1       -0.1632
     22 F          62.3606   85.7923   18.3041 F       1  UNL1       -0.1632
     23 F          63.2213   88.6617   18.4629 F       1  UNL1       -0.1632
     24 N          63.3819   84.2939    9.6174 N.am    1  UNL1       -0.3040
     25 C          63.5492   83.0336   10.4135 C.2     1  UNL1        0.2237
     26 O          63.5156   81.7015    9.7248 O.2     1  UNL1       -0.2751
     27 H          63.4039   85.1682   10.0694 H       1  UNL1        0.1494
     28 C          63.1811   84.2220    8.1326 C.3     1  UNL1        0.0941
     29 C          62.1966   85.1349    7.4639 C.3     1  UNL1        0.0492
     30 C          60.4555   88.6126    9.7276 C.ar    1  UNL1        0.1491
     31 C          61.8741   88.1921    9.9738 C.ar    1  UNL1        0.0293
     32 C          62.4545   87.0328    9.2192 C.ar    1  UNL1       -0.0004
     33 C          61.6162   86.2941    8.2184 C.ar    1  UNL1       -0.0013
     34 C          60.1976   86.7146    7.9723 C.ar    1  UNL1        0.0954
     35 N          59.6172   87.8738    8.7268 N.ar    1  UNL1       -0.2339
     36 N          59.2948   90.9310   11.2368 N.1     1  UNL1       -0.1893
     37 C          59.8751   89.7718   10.4822 C.1     1  UNL1        0.1198
@<TRIPOS>BOND
     1    36    37    3
     2    37    30    1
     3    30    31   ar
     4    31    32   ar
     5    32    33   ar
     6    33    29    1
     7    29    28    1
     8    28    24    1
     9    24    25   am
    10    25    26    2
    11     1    25    1
    12     1     2    1
    13     2     3    1
    14     3     4    1
    15     4     5    1
    16     5     7    1
    17     7     8   ar
    18     8     9   ar
    19     9    13    1
    20    13    14    1
    21    14    15    1
    22    15    16    1
    23    16    17    1
    24    17    18    1
    25     9    10   ar
    26    10    11   ar
    27    11    20    1
    28    20    21    1
    29    20    22    1
    30    20    23    1
    31    11    12   ar
    32     5     6    1
    33    33    34   ar
    34    34    35   ar
    35    35    30   ar
    36     6     1    1
    37    12     7   ar
    38    18    13    1
    39    24    27    1
    40    16    19    1
@<TRIPOS>MOLECULE
*****
 37 40 0 0 0
SMALL
GASTEIGER

@<TRIPOS>ATOM
      1 C          59.4891   88.8562    7.1106 C.3     1  UNL1        0.0963
      2 C          59.0061   87.4947    6.7069 C.3     1  UNL1        0.0126
      3 C          59.4191   86.2879    7.4962 C.3     1  UNL1        0.0220
      4 C          60.3152   86.4425    8.6891 C.3     1  UNL1        0.0922
      5 N          60.7982   87.8040    9.0929 N.pl3   1  UNL1       -0.2926
      6 C          60.3852   89.0109    8.3036 C.3     1  UNL1        0.1012
      7 C          61.6943   87.9587   10.2858 C.ar    1  UNL1        0.1361
      8 C          62.0572   86.7602   11.1116 C.ar    1  UNL1        0.0686
      9 C          62.9532   86.9149   12.3045 C.ar    1  UNL1        0.1362
     10 N          63.4864   88.2680   12.6718 N.ar    1  UNL1       -0.2083
     11 C          63.1234   89.4665   11.8460 C.ar    1  UNL1        0.2374
     12 N          62.2273   89.3118   10.6530 N.ar    1  UNL1       -0.2083
     13 N          63.3162   85.7164   13.1303 N.pl3   1  UNL1       -0.2903
     14 C          64.0901   85.8894   14.4036 C.3     1  UNL1        0.1093
     15 C          64.4530   84.6909   15.2294 C.3     1  UNL1        0.0904
     16 N          64.0420   83.3195   14.7819 N.3     1  UNL1       -0.2946
     17 C          63.2681   83.1464   13.5087 C.3     1  UNL1        0.0904
     18 C          62.9051   84.3449   12.6829 C.3     1  UNL1        0.1093
     19 H          63.4713   82.9246   15.5294 H       1  UNL1        0.1233
     20 C          63.6565   90.8196   12.2131 C.3     1  UNL1        0.4524
     21 F          64.1897   92.1728   12.5803 F       1  UNL1       -0.1632
     22 F          64.3131   90.2316   13.4268 F       1  UNL1       -0.1632
     23 F          62.9999   91.4076   10.9994 F       1  UNL1       -0.1632
     24 N          60.1047   90.8572    5.5721 N.am    1  UNL1       -0.3040
     25 C          59.0761   90.0630    6.3213 C.2     1  UNL1        0.2237
     26 O          57.6346   90.4757    6.2813 O.2     1  UNL1       -0.2751
     27 H          61.0508   90.5864    5.5983 H       1  UNL1        0.1494
     28 C          59.6917   92.0641    4.7828 C.3     1  UNL1        0.0941
     29 C          59.8058   92.0572    3.2872 C.3     1  UNL1        0.0492
     30 C          63.2951   94.0764    1.2876 C.ar    1  UNL1        0.1491
     31 C          63.5110   92.8300    2.0937 C.ar    1  UNL1        0.0293
     32 C          62.3479   92.1569    2.7602 C.ar    1  UNL1       -0.0004
     33 C          60.9689   92.7303    2.6207 C.ar    1  UNL1       -0.0013
     34 C          60.7530   93.9767    1.8146 C.ar    1  UNL1        0.0954
     35 N          61.9160   94.6498    1.1481 N.ar    1  UNL1       -0.2339
     36 N          65.6212   95.4225   -0.0454 N.1     1  UNL1       -0.1893
     37 C          64.4581   94.7495    0.6211 C.1     1  UNL1        0.1198
@<TRIPOS>BOND
     1    36    37    3
     2    37    30    1
     3    30    31   ar
     4    31    32   ar
     5    32    33   ar
     6    33    29    1
     7    29    28    1
     8    28    24    1
     9    24    25   am
    10    25    26    2
    11     1    25    1
    12     1     2    1
    13     2     3    1
    14     3     4    1
    15     4     5    1
    16     5     7    1
    17     7     8   ar
    18     8     9   ar
    19     9    13    1
    20    13    14    1
    21    14    15    1
    22    15    16    1
    23    16    17    1
    24    17    18    1
    25     9    10   ar
    26    10    11   ar
    27    11    20    1
    28    20    21    1
    29    20    22    1
    30    20    23    1
    31    11    12   ar
    32     5     6    1
    33    33    34   ar
    34    34    35   ar
    35    35    30   ar
    36     6     1    1
    37    12     7   ar
    38    18    13    1
    39    24    27    1
    40    16    19    1
@<TRIPOS>MOLECULE
*****
 37 40 0 0 0
SMALL
GASTEIGER

@<TRIPOS>ATOM
      1 C          63.4388   88.2752   16.2609 C.3     1  UNL1        0.0963
      2 C          63.1033   87.8701   17.6657 C.3     1  UNL1        0.0126
      3 C          62.6750   86.4627   17.9584 C.3     1  UNL1        0.0220
      4 C          62.5821   85.4603   16.8464 C.3     1  UNL1        0.0922
      5 N          62.9176   85.8654   15.4416 N.pl3   1  UNL1       -0.2926
      6 C          63.3459   87.2728   15.1488 C.3     1  UNL1        0.1012
      7 C          62.8248   84.8630   14.3296 C.ar    1  UNL1        0.1361
      8 C          62.6462   85.3271   12.9144 C.ar    1  UNL1        0.0686
      9 C          62.5534   84.3248   11.8024 C.ar    1  UNL1        0.1362
     10 N          62.6391   82.8582   12.1055 N.ar    1  UNL1       -0.2083
     11 C          62.8177   82.3940   13.5207 C.ar    1  UNL1        0.2374
     12 N          62.9105   83.3965   14.6327 N.ar    1  UNL1       -0.2083
     13 N          62.3748   84.7889   10.3872 N.pl3   1  UNL1       -0.2903
     14 C          61.2642   85.7366   10.0432 C.3     1  UNL1        0.1093
     15 C          61.0856   86.2007    8.6281 C.3     1  UNL1        0.0904
     16 N          62.0177   85.7172    7.5569 N.3     1  UNL1       -0.2946
     17 C          63.1284   84.7695    7.9009 C.3     1  UNL1        0.0904
     18 C          63.3070   84.3053    9.3161 C.3     1  UNL1        0.1093
     19 H          62.4526   86.5449    7.1493 H       1  UNL1        0.1233
     20 C          62.9034   80.9275   13.8239 C.3     1  UNL1        0.4524
     21 F          62.9891   79.4609   14.1271 F       1  UNL1       -0.1632
     22 F          61.4640   80.9306   14.2458 F       1  UNL1       -0.1632
     23 F          64.3428   80.9244   13.4020 F       1  UNL1       -0.1632
     24 N          64.9023   89.9480   14.9156 N.am    1  UNL1       -0.3040
     25 C          63.8671   89.6826   15.9682 C.2     1  UNL1        0.2237
     26 O          63.2602   90.8247   16.7280 O.2     1  UNL1       -0.2751
     27 H          65.3007   89.1984   14.4169 H       1  UNL1        0.1494
     28 C          65.3306   91.3554   14.6228 C.3     1  UNL1        0.0941
     29 C          65.1900   91.9090   13.2359 C.3     1  UNL1        0.0492
     30 C          62.0076   90.3086   10.4862 C.ar    1  UNL1        0.1491
     31 C          63.0826   91.2053    9.9475 C.ar    1  UNL1        0.0293
     32 C          64.1434   91.7387   10.8641 C.ar    1  UNL1       -0.0004
     33 C          64.1292   91.3755   12.3193 C.ar    1  UNL1       -0.0013
     34 C          63.0542   90.4788   12.8580 C.ar    1  UNL1        0.0954
     35 N          61.9934   89.9454   11.9415 N.ar    1  UNL1       -0.2339
     36 N          59.8860   89.2416    8.6531 N.1     1  UNL1       -0.1893
     37 C          60.9468   89.7751    9.5697 C.1     1  UNL1        0.1198
@<TRIPOS>BOND
     1    36    37    3
     2    37    30    1
     3    30    31   ar
     4    31    32   ar
     5    32    33   ar
     6    33    29    1
     7    29    28    1
     8    28    24    1
     9    24    25   am
    10    25    26    2
    11     1    25    1
    12     1     2    1
    13     2     3    1
    14     3     4    1
    15     4     5    1
    16     5     7    1
    17     7     8   ar
    18     8     9   ar
    19     9    13    1
    20    13    14    1
    21    14    15    1
    22    15    16    1
    23    16    17    1
    24    17    18    1
    25     9    10   ar
    26    10    11   ar
    27    11    20    1
    28    20    21    1
    29    20    22    1
    30    20    23    1
    31    11    12   ar
    32     5     6    1
    33    33    34   ar
    34    34    35   ar
    35    35    30   ar
    36     6     1    1
    37    12     7   ar
    38    18    13    1
    39    24    27    1
    40    16    19    1
