@<TRIPOS>MOLECULE
*****
 36 40 0 0 0
SMALL
GASTEIGER

@<TRIPOS>ATOM
      1 C          67.8449   96.2609    9.5712 C.2     1  UNL1        0.1953
      2 N          67.4605   96.5203    8.1447 N.2     1  UNL1       -0.0672
      3 C          66.3573   95.7272    7.5091 C.cat   1  UNL1        0.4243
      4 N          66.0187   96.1667    5.7785 N.2     1  UNL1       -0.0703
      5 C          65.2977   96.0460    4.4686 C.ar    1  UNL1        0.1587
      6 C          65.4292   96.7755    3.1167 C.ar    1  UNL1        0.0402
      7 C          64.7082   96.6548    1.8069 C.ar    1  UNL1        0.0397
      8 C          63.6056   95.6504    1.6475 C.ar    1  UNL1        0.1371
      9 C          63.2240   94.7667    2.7979 C.ar    1  UNL1        0.0442
     10 C          64.3271   95.5598    3.4335 C.ar    1  UNL1        0.0383
     11 C          62.1214   93.7623    2.6384 C.3     1  UNL1        0.1721
     12 O          61.1523   92.6678    2.9744 O.3     1  UNL1       -0.3441
     13 C          60.4336   91.6152    3.7653 C.3     1  UNL1        0.1686
     14 C          60.0519   90.7314    4.9156 C.2     1  UNL1        0.0036
     15 C          60.0535   90.1231    6.2867 C.2     1  UNL1        0.0036
     16 C          60.4379   89.8636    7.7133 C.3     1  UNL1        0.1686
     17 O          61.1589   89.9842    9.0231 O.3     1  UNL1       -0.3443
     18 C          62.1295   90.4704   10.0582 C.3     1  UNL1        0.1691
     19 C          63.2327   91.2636   10.6938 C.ar    1  UNL1        0.0074
     20 C          63.8670   91.2572   12.0990 C.ar    1  UNL1       -0.0018
     21 C          64.9701   92.0504   12.7347 C.ar    1  UNL1       -0.0002
     22 C          65.6888   93.1030   11.9437 C.ar    1  UNL1        0.0026
     23 C          65.3044   93.3625   10.5173 C.ar    1  UNL1        0.0286
     24 C          64.3352   92.2679   10.8533 C.ar    1  UNL1        0.0008
     25 C          66.0231   94.4151    9.7264 C.2     1  UNL1        0.1117
     26 C          67.1262   95.2083   10.3620 C.2     1  UNL1        0.0713
     27 N          65.6386   94.6746    8.2999 N.pl3   1  UNL1       -0.2000
     28 H          64.9146   94.1540    7.8827 H       1  UNL1        0.2515
     29 O          62.8846   95.5298    0.3377 O.3     1  UNL1       -0.4742
     30 C          63.5844   94.9434   -0.8524 C.3     1  UNL1        0.2226
     31 C          63.0745   93.6767   -1.4734 C.3     1  UNL1        0.1200
     32 N          61.6168   93.3337   -1.3883 N.3     1  UNL1       -0.2696
     33 C          60.9941   92.3624   -0.4297 C.3     1  UNL1        0.0722
     34 C          59.5182   92.3301   -0.6958 C.3     1  UNL1        0.0188
     35 C          59.2288   93.2814   -1.8189 C.3     1  UNL1        0.0188
     36 C          60.5258   93.9016   -2.2469 C.3     1  UNL1        0.0722
@<TRIPOS>BOND
     1     1     2    2
     2     2     3    1
     3     3     4    2
     4     4     5    1
     5     5     6   ar
     6     6     7   ar
     7     7     8   ar
     8     8    29    1
     9    29    30    1
    10    30    31    1
    11    31    32    1
    12    32    33    1
    13    33    34    1
    14    34    35    1
    15    35    36    1
    16     8     9   ar
    17     9    10   ar
    18     9    11    1
    19    11    12    1
    20    12    13    1
    21    13    14    1
    22    14    15    2
    23    15    16    1
    24    16    17    1
    25    17    18    1
    26    18    19    1
    27    19    20   ar
    28    20    21   ar
    29    21    22   ar
    30    22    23   ar
    31    23    24   ar
    32    23    25    1
    33    25    26    2
    34    25    27    1
    35    26     1    1
    36    27     3    1
    37    10     5   ar
    38    24    19   ar
    39    36    32    1
    40    27    28    1
@<TRIPOS>MOLECULE
*****
 36 40 0 0 0
SMALL
GASTEIGER

@<TRIPOS>ATOM
      1 C          67.8467   96.2605    9.5730 C.2     1  UNL1        0.1953
      2 N          67.4702   96.5255    8.1455 N.2     1  UNL1       -0.0672
      3 C          66.3682   95.7373    7.5018 C.cat   1  UNL1        0.4243
      4 N          66.0395   96.1831    5.7709 N.2     1  UNL1       -0.0703
      5 C          65.3249   96.0685    4.4570 C.ar    1  UNL1        0.1587
      6 C          65.4651   96.8020    3.1082 C.ar    1  UNL1        0.0402
      7 C          64.7504   96.6874    1.7943 C.ar    1  UNL1        0.0397
      8 C          63.6461   95.6864    1.6262 C.ar    1  UNL1        0.1371
      9 C          63.2563   94.8000    2.7717 C.ar    1  UNL1        0.0442
     10 C          64.3583   95.5882    3.4155 C.ar    1  UNL1        0.0383
     11 C          62.1520   93.7990    2.6035 C.3     1  UNL1        0.1721
     12 O          61.1783   92.7059    2.9310 O.3     1  UNL1       -0.3441
     13 C          60.4529   91.6527    3.7148 C.3     1  UNL1        0.1686
     14 C          60.0631   90.7662    4.8604 C.2     1  UNL1        0.0036
     15 C          60.0561   90.1536    6.2296 C.2     1  UNL1        0.0036
     16 C          60.4327   89.8885    7.6572 C.3     1  UNL1        0.1686
     17 O          61.1474   90.0031    8.9710 O.3     1  UNL1       -0.3443
     18 C          62.1139   90.4835   10.0126 C.3     1  UNL1        0.1691
     19 C          63.2159   91.2717   10.6563 C.ar    1  UNL1        0.0074
     20 C          63.8431   91.2592   12.0647 C.ar    1  UNL1       -0.0018
     21 C          64.9450   92.0474   12.7084 C.ar    1  UNL1       -0.0002
     22 C          65.6704   93.1007   11.9246 C.ar    1  UNL1        0.0026
     23 C          65.2939   93.3657   10.4970 C.ar    1  UNL1        0.0286
     24 C          64.3203   92.2726   10.8246 C.ar    1  UNL1        0.0008
     25 C          66.0193   94.4190    9.7131 C.2     1  UNL1        0.1117
     26 C          67.1213   95.2072   10.3569 C.2     1  UNL1        0.0713
     27 N          65.6428   94.6840    8.2856 N.pl3   1  UNL1       -0.2000
     28 H          64.9196   94.1667    7.8631 H       1  UNL1        0.2515
     29 O          62.9314   95.5718    0.3123 O.3     1  UNL1       -0.4742
     30 C          63.4614   94.6580   -0.7525 C.3     1  UNL1        0.2226
     31 C          64.0247   95.2301   -2.0196 C.3     1  UNL1        0.1200
     32 N          64.1930   94.3564   -3.2272 N.3     1  UNL1       -0.2696
     33 C          64.7730   94.7761   -4.5453 C.3     1  UNL1        0.0722
     34 C          64.7492   93.5886   -5.4614 C.3     1  UNL1        0.0188
     35 C          64.1546   92.4349   -4.7095 C.3     1  UNL1        0.0188
     36 C          63.8109   92.9094   -3.3286 C.3     1  UNL1        0.0722
@<TRIPOS>BOND
     1     1     2    2
     2     2     3    1
     3     3     4    2
     4     4     5    1
     5     5     6   ar
     6     6     7   ar
     7     7     8   ar
     8     8    29    1
     9    29    30    1
    10    30    31    1
    11    31    32    1
    12    32    33    1
    13    33    34    1
    14    34    35    1
    15    35    36    1
    16     8     9   ar
    17     9    10   ar
    18     9    11    1
    19    11    12    1
    20    12    13    1
    21    13    14    1
    22    14    15    2
    23    15    16    1
    24    16    17    1
    25    17    18    1
    26    18    19    1
    27    19    20   ar
    28    20    21   ar
    29    21    22   ar
    30    22    23   ar
    31    23    24   ar
    32    23    25    1
    33    25    26    2
    34    25    27    1
    35    26     1    1
    36    27     3    1
    37    10     5   ar
    38    24    19   ar
    39    36    32    1
    40    27    28    1
