@<TRIPOS>MOLECULE
*****
 26 30 0 0 0
SMALL
GASTEIGER

@<TRIPOS>ATOM
      1 N          63.2130   89.7843   11.0685 N.am    1  UNL1       -0.3024
      2 C          62.8750   90.1203   12.4908 C.2     1  UNL1        0.2474
      3 O          61.5449   89.7237   13.0594 O.2     1  UNL1       -0.2701
      4 H          64.0861   90.0446   10.6954 H       1  UNL1        0.1497
      5 C          61.8269   88.5298    9.8439 C.3     1  UNL1        0.0896
      6 N          61.2286   88.3191    9.3611 N.3     1  UNL1       -0.2740
      7 C          61.3160   86.8282    9.2211 C.3     1  UNL1        0.0591
      8 C          60.3239   86.0955    8.3674 C.3     1  UNL1        0.0161
      9 C          59.2443   86.8538    7.6537 C.3     1  UNL1        0.0028
     10 C          59.1569   88.3447    7.7936 C.3     1  UNL1        0.0161
     11 C          60.1490   89.0773    8.6473 C.3     1  UNL1        0.0591
     12 C          61.1412   89.8099    9.5010 C.3     1  UNL1        0.0356
     13 C          62.2208   89.0517   10.2148 C.3     1  UNL1        0.0745
     14 C          62.3083   87.5608   10.0749 C.3     1  UNL1        0.0356
     15 C          63.8673   90.8529   13.3445 C.ar    1  UNL1        0.0741
     16 C          63.7995   90.7392   14.8386 C.ar    1  UNL1        0.0062
     17 C          64.7918   91.4718   15.6923 C.ar    1  UNL1        0.0034
     18 C          65.8517   92.3182   15.0518 C.ar    1  UNL1        0.0391
     19 C          65.9194   92.4319   13.5576 C.ar    1  UNL1        0.1645
     20 O          66.8452   93.1855   12.6493 O.2     1  UNL1       -0.4384
     21 C          66.4251   92.9185   11.2343 C.ar    1  UNL1        0.2052
     22 N          65.2397   92.0000   11.2680 N.ar    1  UNL1       -0.2119
     23 C          64.9272   91.6993   12.7040 C.ar    1  UNL1        0.1228
     24 C          67.0762   93.4729   10.0018 C.3     1  UNL1        0.0766
     25 C          68.0635   93.3363    8.8809 C.3     1  UNL1        0.0097
     26 C          67.2165   94.5695    8.9881 C.3     1  UNL1        0.0097
@<TRIPOS>BOND
     1     5     6    1
     2     6     7    1
     3     7     8    1
     4     8     9    1
     5     9    10    1
     6    11    10    1
     7    11    12    1
     8    12    13    1
     9    13     1    1
    10     1     2   am
    11     2     3    2
    12     2    15    1
    13    15    16   ar
    14    16    17   ar
    15    17    18   ar
    16    18    19   ar
    17    19    20   ar
    18    20    21   ar
    19    21    24    1
    20    24    25    1
    21    25    26    1
    22    21    22   ar
    23    22    23   ar
    24    13    14    1
    25    11     6    1
    26    23    15   ar
    27    14     7    1
    28    23    19   ar
    29    26    24    1
    30     1     4    1
@<TRIPOS>MOLECULE
*****
 26 30 0 0 0
SMALL
GASTEIGER

@<TRIPOS>ATOM
      1 N          63.9260   91.0034   12.2947 N.am    1  UNL1       -0.3024
      2 C          63.3383   89.6354   12.4765 C.2     1  UNL1        0.2474
      3 O          63.8267   88.7506   13.5849 O.2     1  UNL1       -0.2701
      4 H          63.6055   91.5841   11.5672 H       1  UNL1        0.1497
      5 C          65.6486   91.7230   13.5233 C.3     1  UNL1        0.0896
      6 N          66.0783   91.9699   14.1477 N.3     1  UNL1       -0.2740
      7 C          67.4599   92.2269   13.6232 C.3     1  UNL1        0.0591
      8 C          68.5360   92.7102   14.5497 C.3     1  UNL1        0.0161
      9 C          68.2305   92.9363   16.0007 C.3     1  UNL1        0.0028
     10 C          66.8489   92.6792   16.5253 C.3     1  UNL1        0.0161
     11 C          65.7728   92.1960   15.5988 C.3     1  UNL1        0.0591
     12 C          64.6967   91.7128   14.6723 C.3     1  UNL1        0.0356
     13 C          65.0021   91.4866   13.2212 C.3     1  UNL1        0.0745
     14 C          66.3837   91.7437   12.6966 C.3     1  UNL1        0.0356
     15 C          62.2621   89.1522   11.5500 C.ar    1  UNL1        0.0741
     16 C          61.3480   90.1373   10.8838 C.ar    1  UNL1        0.0062
     17 C          60.2719   89.6541    9.9572 C.ar    1  UNL1        0.0034
     18 C          60.1100   88.1857    9.6969 C.ar    1  UNL1        0.0391
     19 C          61.0241   87.2006   10.3631 C.ar    1  UNL1        0.1645
     20 O          61.1046   85.7041   10.2997 O.2     1  UNL1       -0.4384
     21 C          62.2305   85.2625   11.1870 C.ar    1  UNL1        0.2052
     22 N          62.8458   86.4860   11.7989 N.ar    1  UNL1       -0.2119
     23 C          62.1002   87.6838   11.2896 C.ar    1  UNL1        0.1228
     24 C          62.6648   83.8459   11.4214 C.3     1  UNL1        0.0766
     25 C          62.5886   82.5793   12.2212 C.3     1  UNL1        0.0097
     26 C          63.4932   82.6591   11.0274 C.3     1  UNL1        0.0097
@<TRIPOS>BOND
     1     5     6    1
     2     6     7    1
     3     7     8    1
     4     8     9    1
     5     9    10    1
     6    11    10    1
     7    11    12    1
     8    12    13    1
     9    13     1    1
    10     1     2   am
    11     2     3    2
    12     2    15    1
    13    15    16   ar
    14    16    17   ar
    15    17    18   ar
    16    18    19   ar
    17    19    20   ar
    18    20    21   ar
    19    21    24    1
    20    24    25    1
    21    25    26    1
    22    21    22   ar
    23    22    23   ar
    24    13    14    1
    25    11     6    1
    26    23    15   ar
    27    14     7    1
    28    23    19   ar
    29    26    24    1
    30     1     4    1
@<TRIPOS>MOLECULE
*****
 26 30 0 0 0
SMALL
GASTEIGER

@<TRIPOS>ATOM
      1 N          62.5972   85.9641   12.1145 N.am    1  UNL1       -0.3024
      2 C          63.3514   86.9251   12.9848 C.2     1  UNL1        0.2474
      3 O          64.1032   86.4221   14.1813 O.2     1  UNL1       -0.2701
      4 H          62.1037   86.2943   11.3291 H       1  UNL1        0.1497
      5 C          62.6601   83.7514   12.4219 C.3     1  UNL1        0.0896
      6 N          62.5923   83.0359   12.7667 N.3     1  UNL1       -0.2740
      7 C          63.0391   82.0380   11.7398 C.3     1  UNL1        0.0591
      8 C          63.0367   80.5739   12.0659 C.3     1  UNL1        0.0161
      9 C          62.5874   80.1077   13.4190 C.3     1  UNL1        0.0028
     10 C          62.1406   81.1056   14.4459 C.3     1  UNL1        0.0161
     11 C          62.1430   82.5697   14.1198 C.3     1  UNL1        0.0591
     12 C          62.1455   84.0338   13.7937 C.3     1  UNL1        0.0356
     13 C          62.5947   84.5000   12.4406 C.3     1  UNL1        0.0745
     14 C          63.0415   83.5022   11.4136 C.3     1  UNL1        0.0356
     15 C          63.3538   88.3893   12.6587 C.ar    1  UNL1        0.0741
     16 C          64.1554   89.3426   13.4945 C.ar    1  UNL1        0.0062
     17 C          64.1578   90.8066   13.1683 C.ar    1  UNL1        0.0034
     18 C          63.3586   91.3174   12.0063 C.ar    1  UNL1        0.0391
     19 C          62.5570   90.3642   11.1705 C.ar    1  UNL1        0.1645
     20 O          61.6787   90.5736    9.9726 O.2     1  UNL1       -0.4384
     21 C          61.1335   89.2390    9.5585 C.ar    1  UNL1        0.2052
     22 N          61.6749   88.2046   10.5004 N.ar    1  UNL1       -0.2119
     23 C          62.5546   88.9001   11.4966 C.ar    1  UNL1        0.1228
     24 C          60.2093   88.9835    8.4050 C.3     1  UNL1        0.0766
     25 C          59.2343   88.0923    7.6943 C.3     1  UNL1        0.0097
     26 C          59.5834   89.4323    7.1178 C.3     1  UNL1        0.0097
@<TRIPOS>BOND
     1     5     6    1
     2     6     7    1
     3     7     8    1
     4     8     9    1
     5     9    10    1
     6    11    10    1
     7    11    12    1
     8    12    13    1
     9    13     1    1
    10     1     2   am
    11     2     3    2
    12     2    15    1
    13    15    16   ar
    14    16    17   ar
    15    17    18   ar
    16    18    19   ar
    17    19    20   ar
    18    20    21   ar
    19    21    24    1
    20    24    25    1
    21    25    26    1
    22    21    22   ar
    23    22    23   ar
    24    13    14    1
    25    11     6    1
    26    23    15   ar
    27    14     7    1
    28    23    19   ar
    29    26    24    1
    30     1     4    1
@<TRIPOS>MOLECULE
*****
 26 30 0 0 0
SMALL
GASTEIGER

@<TRIPOS>ATOM
      1 N          61.5101   85.5686   11.2887 N.am    1  UNL1       -0.3024
      2 C          62.6270   84.6266   10.9491 C.2     1  UNL1        0.2474
      3 O          63.2622   84.6751    9.5911 O.2     1  UNL1       -0.2701
      4 H          61.0932   85.5367   12.1800 H       1  UNL1        0.1497
      5 C          60.7269   86.8945    9.6690 C.3     1  UNL1        0.0896
      6 N          60.5469   87.5496    9.2521 N.3     1  UNL1       -0.2740
      7 C          59.8461   87.0725    8.0146 C.3     1  UNL1        0.0591
      8 C          59.3645   88.0629    6.9963 C.3     1  UNL1        0.0161
      9 C          59.5836   89.5305    7.2155 C.3     1  UNL1        0.0028
     10 C          60.2844   90.0077    8.4529 C.3     1  UNL1        0.0161
     11 C          60.7660   89.0172    9.4712 C.3     1  UNL1        0.0591
     12 C          61.2476   88.0267   10.4895 C.3     1  UNL1        0.0356
     13 C          61.0285   86.5590   10.2704 C.3     1  UNL1        0.0745
     14 C          60.3277   86.0819    9.0330 C.3     1  UNL1        0.0356
     15 C          63.1086   83.6361   11.9674 C.ar    1  UNL1        0.0741
     16 C          63.4915   82.2495   11.5425 C.ar    1  UNL1        0.0062
     17 C          63.9730   81.2591   12.5608 C.ar    1  UNL1        0.0034
     18 C          64.0717   81.6553   14.0042 C.ar    1  UNL1        0.0391
     19 C          63.6888   83.0419   14.4292 C.ar    1  UNL1        0.1645
     20 O          63.6816   83.7148   15.7697 O.2     1  UNL1       -0.4384
     21 C          63.1955   85.1212   15.5799 C.ar    1  UNL1        0.2052
     22 N          62.9023   85.3174   14.1220 N.ar    1  UNL1       -0.2119
     23 C          63.2073   84.0323   13.4108 C.ar    1  UNL1        0.1228
     24 C          63.0314   86.1505   16.6586 C.3     1  UNL1        0.0766
     25 C          62.7215   86.5005   18.0839 C.3     1  UNL1        0.0097
     26 C          63.0572   87.5833   17.1018 C.3     1  UNL1        0.0097
@<TRIPOS>BOND
     1     5     6    1
     2     6     7    1
     3     7     8    1
     4     8     9    1
     5     9    10    1
     6    11    10    1
     7    11    12    1
     8    12    13    1
     9    13     1    1
    10     1     2   am
    11     2     3    2
    12     2    15    1
    13    15    16   ar
    14    16    17   ar
    15    17    18   ar
    16    18    19   ar
    17    19    20   ar
    18    20    21   ar
    19    21    24    1
    20    24    25    1
    21    25    26    1
    22    21    22   ar
    23    22    23   ar
    24    13    14    1
    25    11     6    1
    26    23    15   ar
    27    14     7    1
    28    23    19   ar
    29    26    24    1
    30     1     4    1
@<TRIPOS>MOLECULE
*****
 26 30 0 0 0
SMALL
GASTEIGER

@<TRIPOS>ATOM
      1 N          62.4938   85.9037   12.1943 N.am    1  UNL1       -0.3024
      2 C          63.4054   86.8372   12.9342 C.2     1  UNL1        0.2474
      3 O          64.3632   86.2981   13.9549 O.2     1  UNL1       -0.2701
      4 H          61.8652   86.2576   11.5243 H       1  UNL1        0.1497
      5 C          62.4990   83.7498   12.7904 C.3     1  UNL1        0.0896
      6 N          62.5861   82.9582   12.7559 N.3     1  UNL1       -0.2740
      7 C          62.1829   82.4387   14.1040 C.3     1  UNL1        0.0591
      8 C          62.2290   80.9660   14.3848 C.3     1  UNL1        0.0161
      9 C          62.6785   80.0127   13.3175 C.3     1  UNL1        0.0028
     10 C          63.0817   80.5322   11.9693 C.3     1  UNL1        0.0161
     11 C          63.0356   82.0049   11.6885 C.3     1  UNL1        0.0591
     12 C          62.9894   83.4776   11.4077 C.3     1  UNL1        0.0356
     13 C          62.5400   84.4310   12.4751 C.3     1  UNL1        0.0745
     14 C          62.1367   83.9115   13.8232 C.3     1  UNL1        0.0356
     15 C          63.3592   88.3100   12.6533 C.ar    1  UNL1        0.0741
     16 C          64.1285   89.2632   13.5192 C.ar    1  UNL1        0.0062
     17 C          64.0823   90.7359   13.2383 C.ar    1  UNL1        0.0034
     18 C          63.2668   91.2555   12.0915 C.ar    1  UNL1        0.0391
     19 C          62.4975   90.3023   11.2257 C.ar    1  UNL1        0.1645
     20 O          61.6131   90.5193   10.0337 O.2     1  UNL1       -0.4384
     21 C          61.1127   89.1807    9.5780 C.ar    1  UNL1        0.2052
     22 N          61.6879   88.1364   10.4882 N.ar    1  UNL1       -0.2119
     23 C          62.5438   88.8296   11.5065 C.ar    1  UNL1        0.1228
     24 C          60.1977   88.9304    8.4159 C.3     1  UNL1        0.0766
     25 C          59.4159   89.4450    7.2438 C.3     1  UNL1        0.0097
     26 C          59.3948   87.9823    7.5754 C.3     1  UNL1        0.0097
@<TRIPOS>BOND
     1     5     6    1
     2     6     7    1
     3     7     8    1
     4     8     9    1
     5     9    10    1
     6    11    10    1
     7    11    12    1
     8    12    13    1
     9    13     1    1
    10     1     2   am
    11     2     3    2
    12     2    15    1
    13    15    16   ar
    14    16    17   ar
    15    17    18   ar
    16    18    19   ar
    17    19    20   ar
    18    20    21   ar
    19    21    24    1
    20    24    25    1
    21    25    26    1
    22    21    22   ar
    23    22    23   ar
    24    13    14    1
    25    11     6    1
    26    23    15   ar
    27    14     7    1
    28    23    19   ar
    29    26    24    1
    30     1     4    1
@<TRIPOS>MOLECULE
*****
 26 30 0 0 0
SMALL
GASTEIGER

@<TRIPOS>ATOM
      1 N          63.1353   86.1755   12.1509 N.am    1  UNL1       -0.3024
      2 C          62.1319   86.9084   11.3106 C.2     1  UNL1        0.2474
      3 O          60.9131   86.1951   10.8049 O.2     1  UNL1       -0.2701
      4 H          63.9352   86.6437   12.4828 H       1  UNL1        0.1497
      5 C          62.8745   83.9791   12.4708 C.3     1  UNL1        0.0896
      6 N          62.7045   83.2830   12.8202 N.3     1  UNL1       -0.2740
      7 C          62.9935   82.2253   11.7967 C.3     1  UNL1        0.0591
      8 C          62.7781   80.7790   12.1313 C.3     1  UNL1        0.0161
      9 C          62.2738   80.3906   13.4894 C.3     1  UNL1        0.0028
     10 C          61.9848   81.4483   14.5130 C.3     1  UNL1        0.0161
     11 C          62.2001   82.8945   14.1784 C.3     1  UNL1        0.0591
     12 C          62.4155   84.3407   13.8438 C.3     1  UNL1        0.0356
     13 C          62.9199   84.7293   12.4855 C.3     1  UNL1        0.0745
     14 C          63.2089   83.6716   11.4620 C.3     1  UNL1        0.0356
     15 C          62.3473   88.3547   10.9760 C.ar    1  UNL1        0.0741
     16 C          62.1482   88.8369    9.5697 C.ar    1  UNL1        0.0062
     17 C          62.3636   90.2831    9.2352 C.ar    1  UNL1        0.0034
     18 C          62.7781   91.2472   10.3070 C.ar    1  UNL1        0.0391
     19 C          62.9773   90.7650   11.7133 C.ar    1  UNL1        0.1645
     20 O          63.3808   91.4765   12.9706 O.2     1  UNL1       -0.4384
     21 C          63.4148   90.4699   14.0823 C.ar    1  UNL1        0.2052
     22 N          63.0322   89.1364   13.5120 N.ar    1  UNL1       -0.2119
     23 C          62.7618   89.3188   12.0478 C.ar    1  UNL1        0.1228
     24 C          63.7691   90.7482   15.5131 C.3     1  UNL1        0.0766
     25 C          63.6629   90.4017   16.9686 C.3     1  UNL1        0.0097
     26 C          64.4890   91.5765   16.5357 C.3     1  UNL1        0.0097
@<TRIPOS>BOND
     1     5     6    1
     2     6     7    1
     3     7     8    1
     4     8     9    1
     5     9    10    1
     6    11    10    1
     7    11    12    1
     8    12    13    1
     9    13     1    1
    10     1     2   am
    11     2     3    2
    12     2    15    1
    13    15    16   ar
    14    16    17   ar
    15    17    18   ar
    16    18    19   ar
    17    19    20   ar
    18    20    21   ar
    19    21    24    1
    20    24    25    1
    21    25    26    1
    22    21    22   ar
    23    22    23   ar
    24    13    14    1
    25    11     6    1
    26    23    15   ar
    27    14     7    1
    28    23    19   ar
    29    26    24    1
    30     1     4    1
@<TRIPOS>MOLECULE
*****
 26 30 0 0 0
SMALL
GASTEIGER

@<TRIPOS>ATOM
      1 N          62.5165   86.2669   11.6348 N.am    1  UNL1       -0.3024
      2 C          63.1328   87.4008   12.3993 C.2     1  UNL1        0.2474
      3 O          63.8191   87.1385   13.7069 O.2     1  UNL1       -0.2701
      4 H          62.0661   86.4391   10.7765 H       1  UNL1        0.1497
      5 C          62.5785   84.2605   12.6173 C.3     1  UNL1        0.0896
      6 N          62.6567   83.4740   12.7213 N.3     1  UNL1       -0.2740
      7 C          62.4084   83.2231   14.1792 C.3     1  UNL1        0.0591
      8 C          62.4785   81.8267   14.7225 C.3     1  UNL1        0.0161
      9 C          62.7968   80.6813   13.8078 C.3     1  UNL1        0.0028
     10 C          63.0451   80.9322   12.3500 C.3     1  UNL1        0.0161
     11 C          62.9750   82.3286   11.8067 C.3     1  UNL1        0.0591
     12 C          62.9049   83.7250   11.2635 C.3     1  UNL1        0.0356
     13 C          62.5866   84.8705   12.1781 C.3     1  UNL1        0.0745
     14 C          62.3383   84.6196   13.6360 C.3     1  UNL1        0.0356
     15 C          63.0627   88.7973   11.8559 C.ar    1  UNL1        0.0741
     16 C          62.2301   89.0891   10.6429 C.ar    1  UNL1        0.0062
     17 C          62.1600   90.4855   10.0996 C.ar    1  UNL1        0.0034
     18 C          62.9225   91.5900   10.7694 C.ar    1  UNL1        0.0391
     19 C          63.7551   91.2982   11.9825 C.ar    1  UNL1        0.1645
     20 O          64.6093   92.1759   12.8485 O.2     1  UNL1       -0.4384
     21 C          65.2073   91.3219   13.9271 C.ar    1  UNL1        0.2052
     22 N          64.7227   89.9164   13.7276 N.ar    1  UNL1       -0.2119
     23 C          63.8251   89.9018   12.5258 C.ar    1  UNL1        0.1228
     24 C          66.1282   91.7911   15.0142 C.3     1  UNL1        0.0766
     25 C          66.3429   92.4980   16.3196 C.3     1  UNL1        0.0097
     26 C          67.5085   91.8969   15.5917 C.3     1  UNL1        0.0097
@<TRIPOS>BOND
     1     5     6    1
     2     6     7    1
     3     7     8    1
     4     8     9    1
     5     9    10    1
     6    11    10    1
     7    11    12    1
     8    12    13    1
     9    13     1    1
    10     1     2   am
    11     2     3    2
    12     2    15    1
    13    15    16   ar
    14    16    17   ar
    15    17    18   ar
    16    18    19   ar
    17    19    20   ar
    18    20    21   ar
    19    21    24    1
    20    24    25    1
    21    25    26    1
    22    21    22   ar
    23    22    23   ar
    24    13    14    1
    25    11     6    1
    26    23    15   ar
    27    14     7    1
    28    23    19   ar
    29    26    24    1
    30     1     4    1
@<TRIPOS>MOLECULE
*****
 26 30 0 0 0
SMALL
GASTEIGER

@<TRIPOS>ATOM
      1 N          63.6264   88.0731   13.5447 N.am    1  UNL1       -0.3024
      2 C          64.1079   86.7102   13.9455 C.2     1  UNL1        0.2474
      3 O          65.0432   86.5571   15.1081 O.2     1  UNL1       -0.2701
      4 H          63.0125   88.1736   12.7816 H       1  UNL1        0.1497
      5 C          64.1638   89.8364   14.8083 C.3     1  UNL1        0.0896
      6 N          64.5339   90.4927   15.0685 N.3     1  UNL1       -0.2740
      7 C          63.8439   90.8786   16.3433 C.3     1  UNL1        0.0591
      8 C          64.2977   92.0884   17.1051 C.3     1  UNL1        0.0161
      9 C          65.4413   92.9123   16.5922 C.3     1  UNL1        0.0028
     10 C          66.1313   92.5264   15.3174 C.3     1  UNL1        0.0161
     11 C          65.6776   91.3166   14.5556 C.3     1  UNL1        0.0591
     12 C          65.2239   90.1069   13.7937 C.3     1  UNL1        0.0356
     13 C          64.0801   89.2829   14.3066 C.3     1  UNL1        0.0745
     14 C          63.3902   89.6687   15.5814 C.3     1  UNL1        0.0356
     15 C          63.6542   85.5004   13.1835 C.ar    1  UNL1        0.0741
     16 C          64.1030   84.1339   13.6093 C.ar    1  UNL1        0.0062
     17 C          63.6492   82.9242   12.8474 C.ar    1  UNL1        0.0034
     18 C          62.7466   83.0809   11.6596 C.ar    1  UNL1        0.0391
     19 C          62.2978   84.4473   11.2338 C.ar    1  UNL1        0.1645
     20 O          61.4156   84.9099   10.1123 O.2     1  UNL1       -0.4384
     21 C          61.3241   86.4055   10.1812 C.ar    1  UNL1        0.2052
     22 N          62.1498   86.8674   11.3452 N.ar    1  UNL1       -0.2119
     23 C          62.7516   85.6571   11.9957 C.ar    1  UNL1        0.1228
     24 C          60.5439   87.2850    9.2495 C.3     1  UNL1        0.0766
     25 C          60.1970   88.6520    8.7389 C.3     1  UNL1        0.0097
     26 C          59.5394   87.4410    8.1465 C.3     1  UNL1        0.0097
@<TRIPOS>BOND
     1     5     6    1
     2     6     7    1
     3     7     8    1
     4     8     9    1
     5     9    10    1
     6    11    10    1
     7    11    12    1
     8    12    13    1
     9    13     1    1
    10     1     2   am
    11     2     3    2
    12     2    15    1
    13    15    16   ar
    14    16    17   ar
    15    17    18   ar
    16    18    19   ar
    17    19    20   ar
    18    20    21   ar
    19    21    24    1
    20    24    25    1
    21    25    26    1
    22    21    22   ar
    23    22    23   ar
    24    13    14    1
    25    11     6    1
    26    23    15   ar
    27    14     7    1
    28    23    19   ar
    29    26    24    1
    30     1     4    1
@<TRIPOS>MOLECULE
*****
 26 30 0 0 0
SMALL
GASTEIGER

@<TRIPOS>ATOM
      1 N          63.4615   91.3022   12.8453 N.am    1  UNL1       -0.3024
      2 C          62.9967   89.8804   12.7329 C.2     1  UNL1        0.2474
      3 O          63.8421   88.7694   13.2813 O.2     1  UNL1       -0.2701
      4 H          62.9065   92.0314   12.4853 H       1  UNL1        0.1497
      5 C          65.4948   91.7544   13.6551 C.3     1  UNL1        0.0896
      6 N          66.0819   91.9237   14.1670 N.3     1  UNL1       -0.2740
      7 C          67.3328   92.0185   13.3447 C.3     1  UNL1        0.0591
      8 C          68.6431   92.3292   14.0055 C.3     1  UNL1        0.0161
      9 C          68.7024   92.5452   15.4886 C.3     1  UNL1        0.0028
     10 C          67.4514   92.4504   16.3110 C.3     1  UNL1        0.0161
     11 C          66.1412   92.1396   15.6502 C.3     1  UNL1        0.0591
     12 C          64.8310   91.8289   14.9893 C.3     1  UNL1        0.0356
     13 C          64.7717   91.6129   13.5061 C.3     1  UNL1        0.0745
     14 C          66.0226   91.7077   12.6838 C.3     1  UNL1        0.0356
     15 C          61.6864   89.5697   12.0720 C.ar    1  UNL1        0.0741
     16 C          60.4603   90.3557   12.4310 C.ar    1  UNL1        0.0062
     17 C          59.1501   90.0450   11.7702 C.ar    1  UNL1        0.0034
     18 C          59.0660   88.9482   10.7503 C.ar    1  UNL1        0.0391
     19 C          60.2921   88.1622   10.3914 C.ar    1  UNL1        0.1645
     20 O          60.5142   87.0324    9.4301 O.2     1  UNL1       -0.4384
     21 C          61.9618   86.6448    9.4968 C.ar    1  UNL1        0.2052
     22 N          62.6343   87.5351   10.4993 N.ar    1  UNL1       -0.2119
     23 C          61.6023   88.4730   11.0522 C.ar    1  UNL1        0.1228
     24 C          62.6211   85.5578    8.7007 C.3     1  UNL1        0.0766
     25 C          62.8111   84.8315    7.4021 C.3     1  UNL1        0.0097
     26 C          63.5729   84.4012    8.6205 C.3     1  UNL1        0.0097
@<TRIPOS>BOND
     1     5     6    1
     2     6     7    1
     3     7     8    1
     4     8     9    1
     5     9    10    1
     6    11    10    1
     7    11    12    1
     8    12    13    1
     9    13     1    1
    10     1     2   am
    11     2     3    2
    12     2    15    1
    13    15    16   ar
    14    16    17   ar
    15    17    18   ar
    16    18    19   ar
    17    19    20   ar
    18    20    21   ar
    19    21    24    1
    20    24    25    1
    21    25    26    1
    22    21    22   ar
    23    22    23   ar
    24    13    14    1
    25    11     6    1
    26    23    15   ar
    27    14     7    1
    28    23    19   ar
    29    26    24    1
    30     1     4    1
