@<TRIPOS>MOLECULE
*****
 28 31 0 0 0
SMALL
GASTEIGER

@<TRIPOS>ATOM
      1 N          63.7376   89.4451   13.5441 N.am    1  UNL1       -0.2528
      2 C          63.9722   87.9824   13.7795 C.2     1  UNL1        0.2414
      3 O          64.7827   87.5578   14.9680 O.2     1  UNL1       -0.2737
      4 C          63.2869   87.2210   12.6837 C.3     1  UNL1        0.1667
      5 C          62.6016   86.4595   11.5880 C.3     1  UNL1        0.1072
      6 C          62.8361   84.9967   11.8233 C.2     1  UNL1        0.2329
      7 O          62.3294   83.8737   10.9676 O.2     1  UNL1       -0.2744
      8 N          63.6663   84.8541   13.0644 N.am    1  UNL1       -0.2249
      9 C          63.9449   86.2288   13.5962 C.2     1  UNL1        0.2434
     10 O          64.7643   86.3734   14.8443 O.2     1  UNL1       -0.2736
     11 C          62.6288   88.2131   11.7712 C.ar    1  UNL1        0.0087
     12 C          61.8120   88.0424   10.5248 C.ar    1  UNL1        0.0093
     13 C          61.2737   89.2464    9.8102 C.ar    1  UNL1        0.0575
     14 CL         60.4568   89.0757    8.5637 Cl      1  UNL1       -0.0823
     15 C          61.5523   90.6210   10.3420 C.ar    1  UNL1        0.0127
     16 C          62.3691   90.7917   11.5884 C.ar    1  UNL1        0.0155
     17 C          62.9074   89.5877   12.3030 C.ar    1  UNL1        0.0512
     18 C          64.2443   90.5682   14.3998 C.3     1  UNL1        0.1397
     19 O          62.8016   89.7516   16.4002 O.co2   1  UNL1       -0.5474
     20 C          63.6425   90.8113   15.7520 C.2     1  UNL1        0.0708
     21 O          63.8815   92.1140   16.4561 O.co2   1  UNL1       -0.5474
     22 C          64.1356   83.5636   13.6678 C.3     1  UNL1        0.1274
     23 C          63.2541   82.3506   13.6237 C.ar    1  UNL1       -0.0019
     24 C          61.9523   82.3422   14.3687 C.ar    1  UNL1       -0.0026
     25 C          61.0708   81.1292   14.3246 C.ar    1  UNL1       -0.0003
     26 C          61.4912   79.9249   13.5354 C.ar    1  UNL1       -0.0000
     27 C          62.7931   79.9334   12.7904 C.ar    1  UNL1       -0.0003
     28 C          63.6746   81.1463   12.8345 C.ar    1  UNL1       -0.0026
@<TRIPOS>UNITY_ATOM_ATTR
19 1
charge -1
@<TRIPOS>BOND
     1    19    20   ar
     2    20    21   ar
     3    20    18    1
     4    18     1    1
     5     1     2   am
     6     2     3    2
     7     2     4    1
     8     4     5    1
     9     5     6    1
    10     6     7    2
    11     6     8   am
    12     8    22    1
    13    22    23    1
    14    23    24   ar
    15    24    25   ar
    16    25    26   ar
    17    26    27   ar
    18    27    28   ar
    19     8     9   am
    20     9    10    2
    21     4    11    1
    22    11    12   ar
    23    12    13   ar
    24    13    14    1
    25    13    15   ar
    26    15    16   ar
    27    16    17   ar
    28    17     1    1
    29     9     4    1
    30    17    11   ar
    31    28    23   ar
@<TRIPOS>MOLECULE
*****
 28 31 0 0 0
SMALL
GASTEIGER

@<TRIPOS>ATOM
      1 N          65.2646   93.2196   11.3144 N.am    1  UNL1       -0.2528
      2 C          64.3176   92.0651   11.1712 C.2     1  UNL1        0.2414
      3 O          63.4901   91.9536    9.9250 O.2     1  UNL1       -0.2737
      4 C          64.4255   91.2211   12.4065 C.3     1  UNL1        0.1667
      5 C          64.5334   90.3771   13.6418 C.3     1  UNL1        0.1072
      6 C          63.5864   89.2227   13.4986 C.2     1  UNL1        0.2329
      7 O          63.3705   88.1296   14.5029 O.2     1  UNL1       -0.2744
      8 N          62.8932   89.3532   12.1748 N.am    1  UNL1       -0.2249
      9 C          63.4118   90.5883   11.4998 C.2     1  UNL1        0.2434
     10 O          62.8783   90.9561   10.1470 O.2     1  UNL1       -0.2736
     11 C          65.4392   91.8539   13.3131 C.ar    1  UNL1        0.0087
     12 C          65.9570   91.4650   14.6661 C.ar    1  UNL1        0.0093
     13 C          66.9934   92.3113   15.3441 C.ar    1  UNL1        0.0575
     14 CL         67.5113   91.9224   16.6972 Cl      1  UNL1       -0.0823
     15 C          67.5120   93.5464   14.6692 C.ar    1  UNL1        0.0127
     16 C          66.9942   93.9353   13.3162 C.ar    1  UNL1        0.0155
     17 C          65.9578   93.0890   12.6382 C.ar    1  UNL1        0.0512
     18 C          65.4805   94.3126   10.3101 C.3     1  UNL1        0.1397
     19 O          66.7978   95.1271    8.2241 O.co2   1  UNL1       -0.5474
     20 C          66.7485   94.3564    9.5101 C.2     1  UNL1        0.0708
     21 O          67.9674   93.6295    9.9959 O.co2   1  UNL1       -0.5474
     22 C          61.8625   88.4137   11.6229 C.3     1  UNL1        0.1274
     23 C          62.2902   87.1528   10.9318 C.ar    1  UNL1       -0.0019
     24 C          62.5864   85.9210   11.7349 C.ar    1  UNL1       -0.0026
     25 C          63.0142   84.6601   11.0438 C.ar    1  UNL1       -0.0003
     26 C          63.1457   84.6313    9.5499 C.ar    1  UNL1       -0.0000
     27 C          62.8495   85.8632    8.7469 C.ar    1  UNL1       -0.0003
     28 C          62.4218   87.1239    9.4379 C.ar    1  UNL1       -0.0026
@<TRIPOS>UNITY_ATOM_ATTR
19 1
charge -1
@<TRIPOS>BOND
     1    19    20   ar
     2    20    21   ar
     3    20    18    1
     4    18     1    1
     5     1     2   am
     6     2     3    2
     7     2     4    1
     8     4     5    1
     9     5     6    1
    10     6     7    2
    11     6     8   am
    12     8    22    1
    13    22    23    1
    14    23    24   ar
    15    24    25   ar
    16    25    26   ar
    17    26    27   ar
    18    27    28   ar
    19     8     9   am
    20     9    10    2
    21     4    11    1
    22    11    12   ar
    23    12    13   ar
    24    13    14    1
    25    13    15   ar
    26    15    16   ar
    27    16    17   ar
    28    17     1    1
    29     9     4    1
    30    17    11   ar
    31    28    23   ar
@<TRIPOS>MOLECULE
*****
 28 31 0 0 0
SMALL
GASTEIGER

@<TRIPOS>ATOM
      1 N          63.6274   85.9585   13.5046 N.am    1  UNL1       -0.2528
      2 C          63.8740   87.4199   13.7356 C.2     1  UNL1        0.2414
      3 O          64.5435   87.8526   15.0062 O.2     1  UNL1       -0.2737
      4 C          63.3521   88.1715   12.5470 C.3     1  UNL1        0.1667
      5 C          62.8302   88.9231   11.3584 C.3     1  UNL1        0.1072
      6 C          63.0768   90.3846   11.5893 C.2     1  UNL1        0.2329
      7 O          62.7129   91.4988   10.6533 O.2     1  UNL1       -0.2744
      8 N          63.7510   90.5363   12.9206 N.am    1  UNL1       -0.2249
      9 C          63.9212   89.1685   13.5125 C.2     1  UNL1        0.2434
     10 O          64.5754   89.0336   14.8556 O.2     1  UNL1       -0.2736
     11 C          62.7830   87.1745   11.5815 C.ar    1  UNL1        0.0087
     12 C          62.1319   87.3355   10.2398 C.ar    1  UNL1        0.0093
     13 C          61.6509   86.1287    9.4900 C.ar    1  UNL1        0.0575
     14 CL         60.9997   86.2896    8.1483 Cl      1  UNL1       -0.0823
     15 C          61.8211   84.7609   10.0819 C.ar    1  UNL1        0.0127
     16 C          62.4722   84.6000   11.4235 C.ar    1  UNL1        0.0155
     17 C          62.9532   85.8068   12.1733 C.ar    1  UNL1        0.0512
     18 C          63.9913   84.8442   14.4407 C.3     1  UNL1        0.1397
     19 O          62.8282   82.6629   15.2401 O.co2   1  UNL1       -0.5474
     20 C          62.9244   84.1599   15.2427 C.2     1  UNL1        0.0708
     21 O          61.9536   84.9724   16.0473 O.co2   1  UNL1       -0.5474
     22 C          64.1798   91.8286   13.5497 C.3     1  UNL1        0.1274
     23 C          65.5775   91.9809   14.0727 C.ar    1  UNL1       -0.0019
     24 C          65.8056   92.3037   15.5197 C.ar    1  UNL1       -0.0026
     25 C          67.2033   92.4560   16.0427 C.ar    1  UNL1       -0.0003
     26 C          68.3726   92.2855   15.1188 C.ar    1  UNL1       -0.0000
     27 C          68.1443   91.9627   13.6718 C.ar    1  UNL1       -0.0003
     28 C          66.7468   91.8104   13.1488 C.ar    1  UNL1       -0.0026
@<TRIPOS>UNITY_ATOM_ATTR
19 1
charge -1
@<TRIPOS>BOND
     1    19    20   ar
     2    20    21   ar
     3    20    18    1
     4    18     1    1
     5     1     2   am
     6     2     3    2
     7     2     4    1
     8     4     5    1
     9     5     6    1
    10     6     7    2
    11     6     8   am
    12     8    22    1
    13    22    23    1
    14    23    24   ar
    15    24    25   ar
    16    25    26   ar
    17    26    27   ar
    18    27    28   ar
    19     8     9   am
    20     9    10    2
    21     4    11    1
    22    11    12   ar
    23    12    13   ar
    24    13    14    1
    25    13    15   ar
    26    15    16   ar
    27    16    17   ar
    28    17     1    1
    29     9     4    1
    30    17    11   ar
    31    28    23   ar
@<TRIPOS>MOLECULE
*****
 28 31 0 0 0
SMALL
GASTEIGER

@<TRIPOS>ATOM
      1 N          61.6639   86.9920   10.2570 N.am    1  UNL1       -0.2528
      2 C          62.1870   85.9258   11.1732 C.2     1  UNL1        0.2414
      3 O          61.8471   84.4925   10.8899 O.2     1  UNL1       -0.2737
      4 C          62.9941   86.5927   12.2473 C.3     1  UNL1        0.1667
      5 C          63.8013   87.2597   13.3215 C.3     1  UNL1        0.1072
      6 C          64.3244   86.1934   14.2377 C.2     1  UNL1        0.2329
      7 O          65.1810   86.4142   15.4491 O.2     1  UNL1       -0.2744
      8 N          63.8406   84.8675   13.7298 N.am    1  UNL1       -0.2249
      9 C          63.0185   85.1143   12.4997 C.2     1  UNL1        0.2434
     10 O          62.4086   83.9444   11.7858 O.2     1  UNL1       -0.2736
     11 C          62.9698   88.0712   11.9950 C.ar    1  UNL1        0.0087
     12 C          63.5900   89.2245   12.7264 C.ar    1  UNL1        0.0093
     13 C          63.3881   90.6247   12.2277 C.ar    1  UNL1        0.0575
     14 CL         64.0084   91.7781   12.9591 Cl      1  UNL1       -0.0823
     15 C          62.5660   90.8715   10.9975 C.ar    1  UNL1        0.0127
     16 C          61.9457   89.7181   10.2661 C.ar    1  UNL1        0.0155
     17 C          62.1476   88.3179   10.7648 C.ar    1  UNL1        0.0512
     18 C          60.8073   86.7712    9.0455 C.3     1  UNL1        0.1397
     19 O          62.6926   85.4059    7.8915 O.co2   1  UNL1       -0.5474
     20 C          61.2532   85.8200    7.9750 C.2     1  UNL1        0.0708
     21 O          60.2599   85.2827    6.9877 O.co2   1  UNL1       -0.5474
     22 C          64.1284   83.5297   14.3441 C.3     1  UNL1        0.1274
     23 C          63.2535   82.3538   14.0247 C.ar    1  UNL1       -0.0019
     24 C          61.8571   82.2885   14.5684 C.ar    1  UNL1       -0.0026
     25 C          60.9822   81.1126   14.2490 C.ar    1  UNL1       -0.0003
     26 C          61.5038   80.0021   13.3860 C.ar    1  UNL1       -0.0000
     27 C          62.9003   80.0675   12.8423 C.ar    1  UNL1       -0.0003
     28 C          63.7752   81.2434   13.1616 C.ar    1  UNL1       -0.0026
@<TRIPOS>UNITY_ATOM_ATTR
19 1
charge -1
@<TRIPOS>BOND
     1    19    20   ar
     2    20    21   ar
     3    20    18    1
     4    18     1    1
     5     1     2   am
     6     2     3    2
     7     2     4    1
     8     4     5    1
     9     5     6    1
    10     6     7    2
    11     6     8   am
    12     8    22    1
    13    22    23    1
    14    23    24   ar
    15    24    25   ar
    16    25    26   ar
    17    26    27   ar
    18    27    28   ar
    19     8     9   am
    20     9    10    2
    21     4    11    1
    22    11    12   ar
    23    12    13   ar
    24    13    14    1
    25    13    15   ar
    26    15    16   ar
    27    16    17   ar
    28    17     1    1
    29     9     4    1
    30    17    11   ar
    31    28    23   ar
@<TRIPOS>MOLECULE
*****
 28 31 0 0 0
SMALL
GASTEIGER

@<TRIPOS>ATOM
      1 N          62.4561   88.7082   10.8508 N.am    1  UNL1       -0.2528
      2 C          62.4550   87.3265   11.4345 C.2     1  UNL1        0.2414
      3 O          61.7506   86.2262   10.6975 O.2     1  UNL1       -0.2737
      4 C          63.2201   87.3675   12.7240 C.3     1  UNL1        0.1667
      5 C          63.9853   87.4085   14.0136 C.3     1  UNL1        0.1072
      6 C          63.9842   86.0267   14.5973 C.2     1  UNL1        0.2329
      7 O          64.6347   85.6126   15.8839 O.2     1  UNL1       -0.2744
      8 N          63.2184   85.1317   13.6686 N.am    1  UNL1       -0.2249
      9 C          62.7462   85.9604   12.5108 C.2     1  UNL1        0.2434
     10 O          61.9472   85.3035   11.4244 O.2     1  UNL1       -0.2736
     11 C          63.6941   88.7746   12.9373 C.ar    1  UNL1        0.0087
     12 C          64.4946   89.4084   14.0361 C.ar    1  UNL1        0.0093
     13 C          64.8230   90.8708   13.9772 C.ar    1  UNL1        0.0575
     14 CL         65.6235   91.5046   15.0760 Cl      1  UNL1       -0.0823
     15 C          64.3507   91.6994   12.8194 C.ar    1  UNL1        0.0127
     16 C          63.5502   91.0656   11.7206 C.ar    1  UNL1        0.0155
     17 C          63.2219   89.6032   11.7796 C.ar    1  UNL1        0.0512
     18 C          61.8056   89.1224    9.5642 C.3     1  UNL1        0.1397
     19 O          59.5380   89.2605    8.3037 O.co2   1  UNL1       -0.5474
     20 C          60.3514   89.4894    9.5431 C.2     1  UNL1        0.0708
     21 O          59.7105   90.0854   10.7613 O.co2   1  UNL1       -0.5474
     22 C          62.9687   83.6656   13.8633 C.3     1  UNL1        0.1274
     23 C          63.1291   82.7179   12.7116 C.ar    1  UNL1       -0.0019
     24 C          62.4111   81.4009   12.7186 C.ar    1  UNL1       -0.0026
     25 C          62.5716   80.4532   11.5669 C.ar    1  UNL1       -0.0003
     26 C          63.4500   80.8226   10.4085 C.ar    1  UNL1       -0.0000
     27 C          64.1680   82.1396   10.4016 C.ar    1  UNL1       -0.0003
     28 C          64.0076   83.0872   11.5532 C.ar    1  UNL1       -0.0026
@<TRIPOS>UNITY_ATOM_ATTR
19 1
charge -1
@<TRIPOS>BOND
     1    19    20   ar
     2    20    21   ar
     3    20    18    1
     4    18     1    1
     5     1     2   am
     6     2     3    2
     7     2     4    1
     8     4     5    1
     9     5     6    1
    10     6     7    2
    11     6     8   am
    12     8    22    1
    13    22    23    1
    14    23    24   ar
    15    24    25   ar
    16    25    26   ar
    17    26    27   ar
    18    27    28   ar
    19     8     9   am
    20     9    10    2
    21     4    11    1
    22    11    12   ar
    23    12    13   ar
    24    13    14    1
    25    13    15   ar
    26    15    16   ar
    27    16    17   ar
    28    17     1    1
    29     9     4    1
    30    17    11   ar
    31    28    23   ar
@<TRIPOS>MOLECULE
*****
 28 31 0 0 0
SMALL
GASTEIGER

@<TRIPOS>ATOM
      1 N          63.1817   85.6979   12.6267 N.am    1  UNL1       -0.2528
      2 C          63.7020   86.8722   13.4014 C.2     1  UNL1        0.2414
      3 O          64.4918   86.6257   14.6526 O.2     1  UNL1       -0.2737
      4 C          63.2782   88.1222   12.6888 C.3     1  UNL1        0.1667
      5 C          62.8544   89.3723   11.9761 C.3     1  UNL1        0.1072
      6 C          63.3747   90.5466   12.7509 C.2     1  UNL1        0.2329
      7 O          63.1833   91.9915   12.3964 O.2     1  UNL1       -0.2744
      8 N          64.1200   90.0224   13.9424 N.am    1  UNL1       -0.2249
      9 C          64.0604   88.5241   13.9040 C.2     1  UNL1        0.2434
     10 O          64.7339   87.7414   14.9921 O.2     1  UNL1       -0.2736
     11 C          62.4960   87.7204   11.4735 C.ar    1  UNL1        0.0087
     12 C          61.8304   88.5254   10.3970 C.ar    1  UNL1        0.0093
     13 C          61.1051   87.8319    9.2820 C.ar    1  UNL1        0.0575
     14 CL         60.4395   88.6368    8.2054 Cl      1  UNL1       -0.0823
     15 C          61.0455   86.3336    9.2437 C.ar    1  UNL1        0.0127
     16 C          61.7111   85.5287   10.3202 C.ar    1  UNL1        0.0155
     17 C          62.4364   86.2221   11.4351 C.ar    1  UNL1        0.0512
     18 C          63.3731   84.2530   12.9811 C.3     1  UNL1        0.1397
     19 O          62.6324   82.1111   11.7110 O.co2   1  UNL1       -0.5474
     20 C          63.6026   83.2394   11.8996 C.2     1  UNL1        0.0708
     21 O          64.8023   83.3541   11.0065 O.co2   1  UNL1       -0.5474
     22 C          64.8047   90.8509   14.9886 C.3     1  UNL1        0.1274
     23 C          66.1696   91.4144   14.7244 C.ar    1  UNL1       -0.0019
     24 C          66.7077   91.4514   13.3247 C.ar    1  UNL1       -0.0026
     25 C          68.0725   92.0149   13.0606 C.ar    1  UNL1       -0.0003
     26 C          68.8992   92.5414   14.1961 C.ar    1  UNL1       -0.0000
     27 C          68.3611   92.5044   15.5958 C.ar    1  UNL1       -0.0003
     28 C          66.9963   91.9409   15.8599 C.ar    1  UNL1       -0.0026
@<TRIPOS>UNITY_ATOM_ATTR
19 1
charge -1
@<TRIPOS>BOND
     1    19    20   ar
     2    20    21   ar
     3    20    18    1
     4    18     1    1
     5     1     2   am
     6     2     3    2
     7     2     4    1
     8     4     5    1
     9     5     6    1
    10     6     7    2
    11     6     8   am
    12     8    22    1
    13    22    23    1
    14    23    24   ar
    15    24    25   ar
    16    25    26   ar
    17    26    27   ar
    18    27    28   ar
    19     8     9   am
    20     9    10    2
    21     4    11    1
    22    11    12   ar
    23    12    13   ar
    24    13    14    1
    25    13    15   ar
    26    15    16   ar
    27    16    17   ar
    28    17     1    1
    29     9     4    1
    30    17    11   ar
    31    28    23   ar
@<TRIPOS>MOLECULE
*****
 28 31 0 0 0
SMALL
GASTEIGER

@<TRIPOS>ATOM
      1 N          62.7639   83.4596   13.8219 N.am    1  UNL1       -0.2528
      2 C          62.7679   84.6177   12.8687 C.2     1  UNL1        0.2414
      3 O          62.7340   86.0127   13.4189 O.2     1  UNL1       -0.2737
      4 C          62.8082   84.0691   11.4732 C.3     1  UNL1        0.1667
      5 C          62.8485   83.5206   10.0776 C.3     1  UNL1        0.1072
      6 C          62.8526   84.6787    9.1243 C.2     1  UNL1        0.2329
      7 O          62.8882   84.5884    7.6274 O.2     1  UNL1       -0.2744
      8 N          62.8148   85.9430    9.9306 N.am    1  UNL1       -0.2249
      9 C          62.7874   85.5662   11.3823 C.2     1  UNL1        0.2434
     10 O          62.7471   86.6534   12.4150 O.2     1  UNL1       -0.2736
     11 C          62.8291   82.5720   11.5640 C.ar    1  UNL1        0.0087
     12 C          62.8695   81.5032   10.5124 C.ar    1  UNL1        0.0093
     13 C          62.8825   80.0576   10.9124 C.ar    1  UNL1        0.0575
     14 CL         62.9229   78.9886    9.8608 Cl      1  UNL1       -0.0823
     15 C          62.8551   79.6809   12.3641 C.ar    1  UNL1        0.0127
     16 C          62.8147   80.7497   13.4157 C.ar    1  UNL1        0.0155
     17 C          62.8017   82.1953   13.0156 C.ar    1  UNL1        0.0512
     18 C          62.7283   83.5499   15.3188 C.3     1  UNL1        0.1397
     19 O          61.6353   85.5670   16.5381 O.co2   1  UNL1       -0.5474
     20 C          62.8545   84.8838   15.9930 C.2     1  UNL1        0.0708
     21 O          64.1997   85.5347   16.1221 O.co2   1  UNL1       -0.5474
     22 C          62.8060   87.3388    9.3817 C.3     1  UNL1        0.1274
     23 C          61.9461   88.3900   10.0189 C.ar    1  UNL1       -0.0019
     24 C          60.4770   88.1480   10.2009 C.ar    1  UNL1       -0.0026
     25 C          59.6171   89.1992   10.8380 C.ar    1  UNL1       -0.0003
     26 C          60.2264   90.4921   11.2931 C.ar    1  UNL1       -0.0000
     27 C          61.6956   90.7339   11.1111 C.ar    1  UNL1       -0.0003
     28 C          62.5554   89.6829   10.4740 C.ar    1  UNL1       -0.0026
@<TRIPOS>UNITY_ATOM_ATTR
19 1
charge -1
@<TRIPOS>BOND
     1    19    20   ar
     2    20    21   ar
     3    20    18    1
     4    18     1    1
     5     1     2   am
     6     2     3    2
     7     2     4    1
     8     4     5    1
     9     5     6    1
    10     6     7    2
    11     6     8   am
    12     8    22    1
    13    22    23    1
    14    23    24   ar
    15    24    25   ar
    16    25    26   ar
    17    26    27   ar
    18    27    28   ar
    19     8     9   am
    20     9    10    2
    21     4    11    1
    22    11    12   ar
    23    12    13   ar
    24    13    14    1
    25    13    15   ar
    26    15    16   ar
    27    16    17   ar
    28    17     1    1
    29     9     4    1
    30    17    11   ar
    31    28    23   ar
@<TRIPOS>MOLECULE
*****
 28 31 0 0 0
SMALL
GASTEIGER

@<TRIPOS>ATOM
      1 N          63.7284   84.7270   13.3791 N.am    1  UNL1       -0.2528
      2 C          63.9421   86.0612   14.0304 C.2     1  UNL1        0.2414
      3 O          64.5569   86.1129   15.3976 O.2     1  UNL1       -0.2737
      4 C          63.4521   87.1206   13.0884 C.3     1  UNL1        0.1667
      5 C          62.9621   88.1802   12.1463 C.3     1  UNL1        0.1072
      6 C          63.1758   89.5144   12.7976 C.2     1  UNL1        0.2329
      7 O          62.8285   90.8491   12.2079 O.2     1  UNL1       -0.2744
      8 N          63.7978   89.2795   14.1422 N.am    1  UNL1       -0.2249
      9 C          63.9686   87.8001   14.3219 C.2     1  UNL1        0.2434
     10 O          64.5749   87.2873   15.5946 O.2     1  UNL1       -0.2736
     11 C          62.9356   86.4412   11.8548 C.ar    1  UNL1        0.0087
     12 C          62.3319   86.9785   10.5912 C.ar    1  UNL1        0.0093
     13 C          61.8990   86.0365    9.5072 C.ar    1  UNL1        0.0575
     14 CL         61.2953   86.5738    8.2435 Cl      1  UNL1       -0.0823
     15 C          62.0698   84.5571    9.6869 C.ar    1  UNL1        0.0127
     16 C          62.6735   84.0198   10.9505 C.ar    1  UNL1        0.0155
     17 C          63.1064   84.9619   12.0345 C.ar    1  UNL1        0.0512
     18 C          64.0758   83.3922   13.9688 C.3     1  UNL1        0.1397
     19 O          63.2844   80.9520   14.3799 O.co2   1  UNL1       -0.5474
     20 C          62.9877   82.4212   14.3196 C.2     1  UNL1        0.0708
     21 O          61.6029   82.9191   14.6100 O.co2   1  UNL1       -0.5474
     22 C          64.1816   90.3381   15.1332 C.3     1  UNL1        0.1274
     23 C          65.2918   91.2957   14.8156 C.ar    1  UNL1       -0.0019
     24 C          65.8068   91.4077   13.4113 C.ar    1  UNL1       -0.0026
     25 C          66.9169   92.3653   13.0937 C.ar    1  UNL1       -0.0003
     26 C          67.5119   93.2107   14.1805 C.ar    1  UNL1       -0.0000
     27 C          66.9968   93.0987   15.5849 C.ar    1  UNL1       -0.0003
     28 C          65.8868   92.1411   15.9024 C.ar    1  UNL1       -0.0026
@<TRIPOS>UNITY_ATOM_ATTR
19 1
charge -1
@<TRIPOS>BOND
     1    19    20   ar
     2    20    21   ar
     3    20    18    1
     4    18     1    1
     5     1     2   am
     6     2     3    2
     7     2     4    1
     8     4     5    1
     9     5     6    1
    10     6     7    2
    11     6     8   am
    12     8    22    1
    13    22    23    1
    14    23    24   ar
    15    24    25   ar
    16    25    26   ar
    17    26    27   ar
    18    27    28   ar
    19     8     9   am
    20     9    10    2
    21     4    11    1
    22    11    12   ar
    23    12    13   ar
    24    13    14    1
    25    13    15   ar
    26    15    16   ar
    27    16    17   ar
    28    17     1    1
    29     9     4    1
    30    17    11   ar
    31    28    23   ar
@<TRIPOS>MOLECULE
*****
 28 31 0 0 0
SMALL
GASTEIGER

@<TRIPOS>ATOM
      1 N          63.5469   85.7086   14.9381 N.am    1  UNL1       -0.2528
      2 C          63.3086   86.9312   14.1023 C.2     1  UNL1        0.2414
      3 O          63.3563   88.2801   14.7567 O.2     1  UNL1       -0.2737
      4 C          63.0574   86.4866   12.6919 C.3     1  UNL1        0.1667
      5 C          62.8061   86.0421   11.2814 C.3     1  UNL1        0.1072
      6 C          62.5678   87.2647   10.4456 C.2     1  UNL1        0.2329
      7 O          62.2766   87.2838    8.9743 O.2     1  UNL1       -0.2744
      8 N          62.6717   88.4648   11.3395 N.am    1  UNL1       -0.2249
      9 C          62.9743   87.9839   12.7277 C.2     1  UNL1        0.2434
     10 O          63.1305   88.9912   13.8283 O.2     1  UNL1       -0.2736
     11 C          63.1404   84.9894   12.6560 C.ar    1  UNL1        0.0087
     12 C          62.9797   84.0017   11.5386 C.ar    1  UNL1        0.0093
     13 C          63.1214   82.5332   11.8095 C.ar    1  UNL1        0.0575
     14 CL         62.9607   81.5455   10.6920 Cl      1  UNL1       -0.0823
     15 C          63.4240   82.0524   13.1977 C.ar    1  UNL1        0.0127
     16 C          63.5848   83.0400   14.3151 C.ar    1  UNL1        0.0155
     17 C          63.4430   84.5085   14.0443 C.ar    1  UNL1        0.0512
     18 C          63.8380   85.6895   16.4095 C.3     1  UNL1        0.1397
     19 O          61.3283   85.9801   17.0151 O.co2   1  UNL1       -0.5474
     20 C          62.7765   86.0929   17.3894 C.2     1  UNL1        0.0708
     21 O          63.1630   86.6091   18.7437 O.co2   1  UNL1       -0.5474
     22 C          62.5027   89.8946   10.9190 C.3     1  UNL1        0.1274
     23 C          63.5588   90.9053   11.2557 C.ar    1  UNL1       -0.0019
     24 C          64.1131   91.7963   10.1838 C.ar    1  UNL1       -0.0026
     25 C          65.1692   92.8070   10.5205 C.ar    1  UNL1       -0.0003
     26 C          65.6708   92.9267   11.9291 C.ar    1  UNL1       -0.0000
     27 C          65.1165   92.0356   13.0009 C.ar    1  UNL1       -0.0003
     28 C          64.0605   91.0250   12.6643 C.ar    1  UNL1       -0.0026
@<TRIPOS>UNITY_ATOM_ATTR
19 1
charge -1
@<TRIPOS>BOND
     1    19    20   ar
     2    20    21   ar
     3    20    18    1
     4    18     1    1
     5     1     2   am
     6     2     3    2
     7     2     4    1
     8     4     5    1
     9     5     6    1
    10     6     7    2
    11     6     8   am
    12     8    22    1
    13    22    23    1
    14    23    24   ar
    15    24    25   ar
    16    25    26   ar
    17    26    27   ar
    18    27    28   ar
    19     8     9   am
    20     9    10    2
    21     4    11    1
    22    11    12   ar
    23    12    13   ar
    24    13    14    1
    25    13    15   ar
    26    15    16   ar
    27    16    17   ar
    28    17     1    1
    29     9     4    1
    30    17    11   ar
    31    28    23   ar
