@<TRIPOS>MOLECULE
*****
 38 42 0 0 0
SMALL
GASTEIGER

@<TRIPOS>ATOM
      1 C          62.6347   88.2498   12.1057 C.ar    1  UNL1        0.0648
      2 C          62.7317   89.5764   11.4123 C.ar    1  UNL1        0.0160
      3 C          63.6659   90.6282   11.9330 C.ar    1  UNL1        0.0043
      4 C          64.5028   90.3535   13.1470 C.ar    1  UNL1        0.0342
      5 C          64.4058   89.0270   13.8404 C.ar    1  UNL1        0.0043
      6 C          63.4717   87.9751   13.3198 C.ar    1  UNL1        0.0160
      7 C          65.4369   91.4054   13.6678 C.ar    1  UNL1        0.1447
      8 N          65.3937   92.7937   13.1015 N.ar    1  UNL1       -0.1943
      9 C          66.3279   93.8455   13.6223 C.ar    1  UNL1        0.2305
     10 C          67.3051   93.5090   14.7093 C.ar    1  UNL1        0.1097
     11 C          68.3413   94.3308   15.4171 C.ar    1  UNL1        0.1299
     12 N          69.0248   93.4503   16.4209 N.ar    1  UNL1       -0.1447
     13 N          68.4111   92.0844   16.3334 N.ar    1  UNL1       -0.1301
     14 C          67.3482   92.1207   15.2756 C.ar    1  UNL1        0.1692
     15 N          66.4142   91.0689   14.7548 N.ar    1  UNL1       -0.3223
     16 H          66.4425   90.1577   15.1265 H       1  UNL1        0.1688
     17 O          66.2846   95.2339   13.0559 O.3     1  UNL1       -0.4639
     18 C          66.2338   95.4367   11.5706 C.3     1  UNL1        0.1677
     19 C          65.5630   96.6520   11.0022 C.3     1  UNL1        0.0461
     20 C          65.5121   96.8549    9.5169 C.3     1  UNL1        0.0329
     21 C          66.1319   95.8425    8.5999 C.3     1  UNL1        0.1108
     22 O          66.0810   96.0453    7.1145 O.3     1  UNL1       -0.3845
     23 C          66.8027   94.6272    9.1683 C.3     1  UNL1        0.0329
     24 C          66.8536   94.4243   10.6536 C.3     1  UNL1        0.0461
     25 H          66.5244   95.3049    6.6717 H       1  UNL1        0.2103
     26 N          61.7007   87.1979   11.5850 N.pl3   1  UNL1       -0.2149
     27 H          60.7732   87.4339   11.3540 H       1  UNL1        0.1737
     28 O          62.7754   85.8241   12.7924 O.2     1  UNL1       -0.1499
     29 S          62.1798   85.7866   11.4163 S.O2    1  UNL1        0.0758
     30 O          61.5841   85.7489   10.0400 O.2     1  UNL1       -0.1499
     31 C          62.6588   84.3752   11.2475 C.ar    1  UNL1        0.1533
     32 C          62.3552   83.3493   12.2989 C.ar    1  UNL1        0.0339
     33 C          62.8342   81.9379   12.1301 C.ar    1  UNL1        0.0592
     34 CL         62.5307   80.9121   13.1816 Cl      1  UNL1       -0.0822
     35 C          63.6168   81.5523   10.9099 C.ar    1  UNL1        0.0138
     36 C          63.9204   82.5781    9.8585 C.ar    1  UNL1        0.0319
     37 C          63.4414   83.9896   10.0273 C.ar    1  UNL1        0.1589
     38 F          63.7449   85.0154    8.9758 F       1  UNL1       -0.2027
@<TRIPOS>BOND
     1    28    29    2
     2    29    30    2
     3    29    26    1
     4    26     1    1
     5     1     2   ar
     6     2     3   ar
     7     3     4   ar
     8     4     7    1
     9     7     8   ar
    10     8     9   ar
    11     9    17    1
    12    18    17    1
    13    18    19    1
    14    19    20    1
    15    20    21    1
    16    21    22    1
    17    21    23    1
    18    23    24    1
    19     9    10   ar
    20    10    11   ar
    21    11    12   ar
    22    12    13   ar
    23    13    14   ar
    24    14    15   ar
    25     4     5   ar
    26     5     6   ar
    27    29    31    1
    28    31    32   ar
    29    32    33   ar
    30    33    34    1
    31    33    35   ar
    32    35    36   ar
    33    36    37   ar
    34    37    38    1
    35     6     1   ar
    36    37    31   ar
    37    15     7   ar
    38    24    18    1
    39    14    10    1
    40    26    27    1
    41    22    25    1
    42    15    16    1
@<TRIPOS>MOLECULE
*****
 38 42 0 0 0
SMALL
GASTEIGER

@<TRIPOS>ATOM
      1 C          64.9130   91.7006   13.5742 C.ar    1  UNL1        0.0648
      2 C          65.4208   90.7382   14.6066 C.ar    1  UNL1        0.0160
      3 C          65.0007   89.2988   14.5610 C.ar    1  UNL1        0.0043
      4 C          64.0729   88.8221   13.4832 C.ar    1  UNL1        0.0342
      5 C          63.5651   89.7845   12.4508 C.ar    1  UNL1        0.0043
      6 C          63.9851   91.2238   12.4963 C.ar    1  UNL1        0.0160
      7 C          63.6528   87.3828   13.4376 C.ar    1  UNL1        0.1447
      8 N          62.9659   86.8402   12.2197 N.ar    1  UNL1       -0.1943
      9 C          62.5458   85.4009   12.1741 C.ar    1  UNL1        0.2305
     10 C          62.8127   84.5042   13.3466 C.ar    1  UNL1        0.1097
     11 C          62.5164   83.0539   13.5890 C.ar    1  UNL1        0.1299
     12 N          63.0202   82.7003   14.9569 N.ar    1  UNL1       -0.1447
     13 N          63.6280   83.9320   15.5599 N.ar    1  UNL1       -0.1301
     14 C          63.4997   85.0469   14.5646 C.ar    1  UNL1        0.1692
     15 N          63.9198   86.4862   14.6101 N.ar    1  UNL1       -0.3223
     16 H          64.3707   86.8423   15.4096 H       1  UNL1        0.1688
     17 O          61.8588   84.8583   10.9560 O.3     1  UNL1       -0.4639
     18 C          61.1587   85.7904   10.0121 C.3     1  UNL1        0.1677
     19 C          60.5271   87.0481   10.5308 C.3     1  UNL1        0.0461
     20 C          59.8270   87.9803    9.5870 C.3     1  UNL1        0.0329
     21 C          59.7585   87.6547    8.1244 C.3     1  UNL1        0.1108
     22 O          59.0583   88.5868    7.1804 O.3     1  UNL1       -0.3845
     23 C          60.3900   86.3969    7.6056 C.3     1  UNL1        0.0329
     24 C          61.0902   85.4647    8.5495 C.3     1  UNL1        0.0461
     25 H          59.1057   88.2303    6.2795 H       1  UNL1        0.2103
     26 N          65.3330   93.1399   13.6197 N.pl3   1  UNL1       -0.2149
     27 H          65.2209   93.6594   14.4484 H       1  UNL1        0.1737
     28 O          64.9778   93.0149   11.5321 O.2     1  UNL1       -0.1499
     29 S          65.9239   93.7875   12.4026 S.O2    1  UNL1        0.0758
     30 O          66.8701   94.5603   13.2732 O.2     1  UNL1       -0.1499
     31 C          66.5148   94.4353   11.1856 C.ar    1  UNL1        0.1533
     32 C          67.1983   93.5965   10.1467 C.ar    1  UNL1        0.0339
     33 C          67.7892   94.2441    8.9296 C.ar    1  UNL1        0.0592
     34 CL         68.4727   93.4053    7.8907 Cl      1  UNL1       -0.0822
     35 C          67.6967   95.7306    8.7513 C.ar    1  UNL1        0.0138
     36 C          67.0132   96.5694    9.7902 C.ar    1  UNL1        0.0319
     37 C          66.4222   95.9217   11.0073 C.ar    1  UNL1        0.1589
     38 F          65.7388   96.7606   12.0462 F       1  UNL1       -0.2027
@<TRIPOS>BOND
     1    28    29    2
     2    29    30    2
     3    29    26    1
     4    26     1    1
     5     1     2   ar
     6     2     3   ar
     7     3     4   ar
     8     4     7    1
     9     7     8   ar
    10     8     9   ar
    11     9    17    1
    12    18    17    1
    13    18    19    1
    14    19    20    1
    15    20    21    1
    16    21    22    1
    17    21    23    1
    18    23    24    1
    19     9    10   ar
    20    10    11   ar
    21    11    12   ar
    22    12    13   ar
    23    13    14   ar
    24    14    15   ar
    25     4     5   ar
    26     5     6   ar
    27    29    31    1
    28    31    32   ar
    29    32    33   ar
    30    33    34    1
    31    33    35   ar
    32    35    36   ar
    33    36    37   ar
    34    37    38    1
    35     6     1   ar
    36    37    31   ar
    37    15     7   ar
    38    24    18    1
    39    14    10    1
    40    26    27    1
    41    22    25    1
    42    15    16    1
@<TRIPOS>MOLECULE
*****
 38 42 0 0 0
SMALL
GASTEIGER

@<TRIPOS>ATOM
      1 C          58.8441   90.0538    6.0832 C.ar    1  UNL1        0.0648
      2 C          60.2906   90.0539    5.6864 C.ar    1  UNL1        0.0160
      3 C          60.7684   90.9636    4.5935 C.ar    1  UNL1        0.0043
      4 C          59.7997   91.8730    3.8975 C.ar    1  UNL1        0.0342
      5 C          58.3531   91.8729    4.2944 C.ar    1  UNL1        0.0043
      6 C          57.8754   90.9633    5.3873 C.ar    1  UNL1        0.0160
      7 C          60.2774   92.7827    2.8046 C.ar    1  UNL1        0.1447
      8 N          59.3025   93.3304    1.8050 N.ar    1  UNL1       -0.1943
      9 C          59.7803   94.2401    0.7121 C.ar    1  UNL1        0.2305
     10 C          61.2330   94.6019    0.6190 C.ar    1  UNL1        0.1097
     11 C          61.9917   95.4694   -0.3412 C.ar    1  UNL1        0.1299
     12 N          63.4355   95.4577    0.0652 N.ar    1  UNL1       -0.1447
     13 N          63.5692   94.5830    1.2764 N.ar    1  UNL1       -0.1301
     14 C          62.2079   94.0541    1.6187 C.ar    1  UNL1        0.1692
     15 N          61.7301   93.1445    2.7115 N.ar    1  UNL1       -0.3223
     16 H          62.3700   92.7850    3.3677 H       1  UNL1        0.1688
     17 O          58.8052   94.7879   -0.2876 O.3     1  UNL1       -0.4639
     18 C          58.1469   93.8695   -1.2741 C.3     1  UNL1        0.1677
     19 C          58.9376   93.3062   -2.4175 C.3     1  UNL1        0.0461
     20 C          58.2793   92.3878   -3.4041 C.3     1  UNL1        0.0329
     21 C          56.8304   92.0328   -3.2471 C.3     1  UNL1        0.1108
     22 O          56.1720   91.1143   -4.2337 O.3     1  UNL1       -0.3845
     23 C          56.0398   92.5961   -2.1037 C.3     1  UNL1        0.0329
     24 C          56.6980   93.5145   -1.1171 C.3     1  UNL1        0.0461
     25 H          55.2418   90.9898   -3.9885 H       1  UNL1        0.2103
     26 N          58.3663   89.1442    7.1761 N.pl3   1  UNL1       -0.2149
     27 H          57.4079   89.1011    7.3968 H       1  UNL1        0.1737
     28 O          60.0458   89.5396    8.4103 O.2     1  UNL1       -0.1499
     29 S          59.3489   88.3002    7.9326 S.O2    1  UNL1        0.0758
     30 O          58.6520   87.0607    7.4549 O.2     1  UNL1       -0.1499
     31 C          60.3314   87.4562    8.6890 C.ar    1  UNL1        0.1533
     32 C          61.2655   86.5462    7.9477 C.ar    1  UNL1        0.0339
     33 C          62.2480   85.7021    8.7041 C.ar    1  UNL1        0.0592
     34 CL         63.1820   84.7922    7.9627 Cl      1  UNL1       -0.0822
     35 C          62.2965   85.7680   10.2018 C.ar    1  UNL1        0.0138
     36 C          61.3625   86.6779   10.9432 C.ar    1  UNL1        0.0319
     37 C          60.3799   87.5220   10.1868 C.ar    1  UNL1        0.1589
     38 F          59.4459   88.4319   10.9282 F       1  UNL1       -0.2027
@<TRIPOS>BOND
     1    28    29    2
     2    29    30    2
     3    29    26    1
     4    26     1    1
     5     1     2   ar
     6     2     3   ar
     7     3     4   ar
     8     4     7    1
     9     7     8   ar
    10     8     9   ar
    11     9    17    1
    12    18    17    1
    13    18    19    1
    14    19    20    1
    15    20    21    1
    16    21    22    1
    17    21    23    1
    18    23    24    1
    19     9    10   ar
    20    10    11   ar
    21    11    12   ar
    22    12    13   ar
    23    13    14   ar
    24    14    15   ar
    25     4     5   ar
    26     5     6   ar
    27    29    31    1
    28    31    32   ar
    29    32    33   ar
    30    33    34    1
    31    33    35   ar
    32    35    36   ar
    33    36    37   ar
    34    37    38    1
    35     6     1   ar
    36    37    31   ar
    37    15     7   ar
    38    24    18    1
    39    14    10    1
    40    26    27    1
    41    22    25    1
    42    15    16    1
@<TRIPOS>MOLECULE
*****
 38 42 0 0 0
SMALL
GASTEIGER

@<TRIPOS>ATOM
      1 C          63.3421   86.4444   15.8818 C.ar    1  UNL1        0.0648
      2 C          64.2026   86.5027   14.6546 C.ar    1  UNL1        0.0160
      3 C          64.7311   87.8207   14.1711 C.ar    1  UNL1        0.0043
      4 C          64.3991   89.0802   14.9148 C.ar    1  UNL1        0.0342
      5 C          63.5386   89.0219   16.1420 C.ar    1  UNL1        0.0043
      6 C          63.0101   87.7040   16.6255 C.ar    1  UNL1        0.0160
      7 C          64.9276   90.3982   14.4313 C.ar    1  UNL1        0.1447
      8 N          64.5313   90.9150   13.0801 N.ar    1  UNL1       -0.1943
      9 C          65.0598   92.2331   12.5967 C.ar    1  UNL1        0.2305
     10 C          65.9846   93.0341   13.4645 C.ar    1  UNL1        0.1097
     11 C          66.6600   94.3574   13.2580 C.ar    1  UNL1        0.1299
     12 N          67.4738   94.6583   14.4816 N.ar    1  UNL1       -0.1447
     13 N          67.3012   93.5211   15.4444 N.ar    1  UNL1       -0.1301
     14 C          66.3808   92.5172   14.8157 C.ar    1  UNL1        0.1692
     15 N          65.8523   91.1993   15.2991 N.ar    1  UNL1       -0.3223
     16 H          66.1124   90.8600   16.1860 H       1  UNL1        0.1688
     17 O          64.6635   92.7499   11.2454 O.3     1  UNL1       -0.4639
     18 C          65.5508   93.7204   10.5238 C.3     1  UNL1        0.1677
     19 C          65.1331   95.1538   10.3791 C.3     1  UNL1        0.0461
     20 C          66.0203   96.1244    9.6576 C.3     1  UNL1        0.0329
     21 C          67.3253   95.6616    9.0807 C.3     1  UNL1        0.1108
     22 O          68.2127   96.6322    8.3590 O.3     1  UNL1       -0.3845
     23 C          67.7431   94.2282    9.2253 C.3     1  UNL1        0.0329
     24 C          66.8558   93.2576    9.9469 C.3     1  UNL1        0.0461
     25 H          69.0103   96.1739    8.0514 H       1  UNL1        0.2103
     26 N          62.8136   85.1265   16.3653 N.pl3   1  UNL1       -0.2149
     27 H          62.5184   85.0272   17.2992 H       1  UNL1        0.1737
     28 O          63.9547   83.3638   16.0639 O.2     1  UNL1       -0.1499
     29 S          62.7350   83.9598   15.4259 S.O2    1  UNL1        0.0758
     30 O          61.5152   84.5557   14.7878 O.2     1  UNL1       -0.1499
     31 C          62.6563   82.7931   14.4864 C.ar    1  UNL1        0.1533
     32 C          61.5740   81.7679   14.6527 C.ar    1  UNL1        0.0339
     33 C          61.4952   80.6012   13.7132 C.ar    1  UNL1        0.0592
     34 CL         60.4128   79.5761   13.8796 Cl      1  UNL1       -0.0822
     35 C          62.4988   80.4596   12.6075 C.ar    1  UNL1        0.0138
     36 C          63.5812   81.4847   12.4412 C.ar    1  UNL1        0.0319
     37 C          63.6599   82.6515   13.3807 C.ar    1  UNL1        0.1589
     38 F          64.7423   83.6766   13.2144 F       1  UNL1       -0.2027
@<TRIPOS>BOND
     1    28    29    2
     2    29    30    2
     3    29    26    1
     4    26     1    1
     5     1     2   ar
     6     2     3   ar
     7     3     4   ar
     8     4     7    1
     9     7     8   ar
    10     8     9   ar
    11     9    17    1
    12    18    17    1
    13    18    19    1
    14    19    20    1
    15    20    21    1
    16    21    22    1
    17    21    23    1
    18    23    24    1
    19     9    10   ar
    20    10    11   ar
    21    11    12   ar
    22    12    13   ar
    23    13    14   ar
    24    14    15   ar
    25     4     5   ar
    26     5     6   ar
    27    29    31    1
    28    31    32   ar
    29    32    33   ar
    30    33    34    1
    31    33    35   ar
    32    35    36   ar
    33    36    37   ar
    34    37    38    1
    35     6     1   ar
    36    37    31   ar
    37    15     7   ar
    38    24    18    1
    39    14    10    1
    40    26    27    1
    41    22    25    1
    42    15    16    1
@<TRIPOS>MOLECULE
*****
 38 42 0 0 0
SMALL
GASTEIGER

@<TRIPOS>ATOM
      1 C          61.5270   89.5142   11.4909 C.ar    1  UNL1        0.0648
      2 C          61.8821   89.3634   12.9404 C.ar    1  UNL1        0.0160
      3 C          63.0376   90.1296   13.5131 C.ar    1  UNL1        0.0043
      4 C          63.8379   91.0463   12.6363 C.ar    1  UNL1        0.0342
      5 C          63.4828   91.1971   11.1867 C.ar    1  UNL1        0.0043
      6 C          62.3273   90.4310   10.6141 C.ar    1  UNL1        0.0160
      7 C          64.9935   91.8125   13.2089 C.ar    1  UNL1        0.1447
      8 N          65.3818   93.1359   12.6194 N.ar    1  UNL1       -0.1943
      9 C          66.5373   93.9020   13.1920 C.ar    1  UNL1        0.2305
     10 C          67.3045   93.3446   14.3542 C.ar    1  UNL1        0.1097
     11 C          68.4802   93.8682   15.1246 C.ar    1  UNL1        0.1299
     12 N          68.8185   92.8682   16.1902 N.ar    1  UNL1       -0.1447
     13 N          67.8519   91.7267   16.0785 N.ar    1  UNL1       -0.1301
     14 C          66.9162   92.0211   14.9437 C.ar    1  UNL1        0.1692
     15 N          65.7607   91.2550   14.3711 N.ar    1  UNL1       -0.3223
     16 H          65.5058   90.3864   14.7580 H       1  UNL1        0.1688
     17 O          66.9256   95.2256   12.6024 O.3     1  UNL1       -0.4639
     18 C          66.5548   95.5536   11.1865 C.3     1  UNL1        0.1677
     19 C          67.2899   94.9072   10.0499 C.3     1  UNL1        0.0461
     20 C          66.9192   95.2352    8.6339 C.3     1  UNL1        0.0329
     21 C          65.8134   96.2095    8.3545 C.3     1  UNL1        0.1108
     22 O          65.4427   96.5376    6.9385 O.3     1  UNL1       -0.3845
     23 C          65.0784   96.8558    9.4912 C.3     1  UNL1        0.0329
     24 C          65.4491   96.5279   10.9072 C.3     1  UNL1        0.0461
     25 H          64.7148   97.1787    6.9352 H       1  UNL1        0.2103
     26 N          60.3715   88.7481   10.9183 N.pl3   1  UNL1       -0.2149
     27 H          59.4577   88.9209   11.2414 H       1  UNL1        0.1737
     28 O          60.8518   86.6819   10.9094 O.2     1  UNL1       -0.1499
     29 S          60.6082   87.7187    9.8532 S.O2    1  UNL1        0.0758
     30 O          60.3646   88.7556    8.7969 O.2     1  UNL1       -0.1499
     31 C          60.8449   86.6894    8.7881 C.ar    1  UNL1        0.1533
     32 C          62.1853   86.0263    8.6706 C.ar    1  UNL1        0.0339
     33 C          62.4221   84.9970    7.6056 C.ar    1  UNL1        0.0592
     34 CL         63.7624   84.3339    7.4881 Cl      1  UNL1       -0.0822
     35 C          61.3185   84.6307    6.6579 C.ar    1  UNL1        0.0138
     36 C          59.9782   85.2938    6.7754 C.ar    1  UNL1        0.0319
     37 C          59.7414   86.3232    7.8405 C.ar    1  UNL1        0.1589
     38 F          58.4010   86.9862    7.9580 F       1  UNL1       -0.2027
@<TRIPOS>BOND
     1    28    29    2
     2    29    30    2
     3    29    26    1
     4    26     1    1
     5     1     2   ar
     6     2     3   ar
     7     3     4   ar
     8     4     7    1
     9     7     8   ar
    10     8     9   ar
    11     9    17    1
    12    18    17    1
    13    18    19    1
    14    19    20    1
    15    20    21    1
    16    21    22    1
    17    21    23    1
    18    23    24    1
    19     9    10   ar
    20    10    11   ar
    21    11    12   ar
    22    12    13   ar
    23    13    14   ar
    24    14    15   ar
    25     4     5   ar
    26     5     6   ar
    27    29    31    1
    28    31    32   ar
    29    32    33   ar
    30    33    34    1
    31    33    35   ar
    32    35    36   ar
    33    36    37   ar
    34    37    38    1
    35     6     1   ar
    36    37    31   ar
    37    15     7   ar
    38    24    18    1
    39    14    10    1
    40    26    27    1
    41    22    25    1
    42    15    16    1
@<TRIPOS>MOLECULE
*****
 38 42 0 0 0
SMALL
GASTEIGER

@<TRIPOS>ATOM
      1 C          59.4638   88.4338    7.9196 C.ar    1  UNL1        0.0648
      2 C          60.1396   89.0496    9.1088 C.ar    1  UNL1        0.0160
      3 C          61.0137   88.2102    9.9928 C.ar    1  UNL1        0.0043
      4 C          61.2121   86.7551    9.6875 C.ar    1  UNL1        0.0342
      5 C          60.5364   86.1393    8.4984 C.ar    1  UNL1        0.0043
      6 C          59.6623   86.9786    7.6144 C.ar    1  UNL1        0.0160
      7 C          62.0863   85.9157   10.5715 C.ar    1  UNL1        0.1447
      8 N          62.3581   86.3447   11.9828 N.ar    1  UNL1       -0.1943
      9 C          63.2323   85.5053   12.8668 C.ar    1  UNL1        0.2305
     10 C          63.8346   84.2369   12.3392 C.ar    1  UNL1        0.1097
     11 C          64.7293   83.2121   12.9711 C.ar    1  UNL1        0.1299
     12 N          65.0104   82.1497   11.9501 N.ar    1  UNL1       -0.1447
     13 N          64.2895   82.5179   10.6873 N.ar    1  UNL1       -0.1301
     14 C          63.5628   83.8079   10.9278 C.ar    1  UNL1        0.1692
     15 N          62.6886   84.6473   10.0439 N.ar    1  UNL1       -0.3223
     16 H          62.5102   84.3657    9.1176 H       1  UNL1        0.1688
     17 O          63.5041   85.9344   14.2782 O.3     1  UNL1       -0.4639
     18 C          63.5960   87.3934   14.6140 C.3     1  UNL1        0.1677
     19 C          63.9856   88.3832   13.5565 C.3     1  UNL1        0.0461
     20 C          64.0776   89.8423   13.8922 C.3     1  UNL1        0.0329
     21 C          63.7799   90.3114   15.2855 C.3     1  UNL1        0.1108
     22 O          63.8718   91.7705   15.6214 O.3     1  UNL1       -0.3845
     23 C          63.3902   89.3216   16.3431 C.3     1  UNL1        0.0329
     24 C          63.2983   87.8625   16.0073 C.3     1  UNL1        0.0461
     25 H          63.6496   91.9017   16.5565 H       1  UNL1        0.2103
     26 N          58.5897   89.2731    7.0357 N.pl3   1  UNL1       -0.2149
     27 H          57.6115   89.2484    7.1442 H       1  UNL1        0.1737
     28 O          60.5705   89.8326    6.5222 O.2     1  UNL1       -0.1499
     29 S          59.2059   90.1501    5.9864 S.O2    1  UNL1        0.0758
     30 O          57.8413   90.4677    5.4504 O.2     1  UNL1       -0.1499
     31 C          59.8221   91.0271    4.9370 C.ar    1  UNL1        0.1533
     32 C          61.2462   90.8094    4.5191 C.ar    1  UNL1        0.0339
     33 C          61.8624   91.6864    3.4698 C.ar    1  UNL1        0.0592
     34 CL         63.2865   91.4686    3.0520 Cl      1  UNL1       -0.0822
     35 C          61.0546   92.7812    2.8383 C.ar    1  UNL1        0.0138
     36 C          59.6305   92.9990    3.2561 C.ar    1  UNL1        0.0319
     37 C          59.0142   92.1219    4.3055 C.ar    1  UNL1        0.1589
     38 F          57.5901   92.3397    4.7233 F       1  UNL1       -0.2027
@<TRIPOS>BOND
     1    28    29    2
     2    29    30    2
     3    29    26    1
     4    26     1    1
     5     1     2   ar
     6     2     3   ar
     7     3     4   ar
     8     4     7    1
     9     7     8   ar
    10     8     9   ar
    11     9    17    1
    12    18    17    1
    13    18    19    1
    14    19    20    1
    15    20    21    1
    16    21    22    1
    17    21    23    1
    18    23    24    1
    19     9    10   ar
    20    10    11   ar
    21    11    12   ar
    22    12    13   ar
    23    13    14   ar
    24    14    15   ar
    25     4     5   ar
    26     5     6   ar
    27    29    31    1
    28    31    32   ar
    29    32    33   ar
    30    33    34    1
    31    33    35   ar
    32    35    36   ar
    33    36    37   ar
    34    37    38    1
    35     6     1   ar
    36    37    31   ar
    37    15     7   ar
    38    24    18    1
    39    14    10    1
    40    26    27    1
    41    22    25    1
    42    15    16    1
@<TRIPOS>MOLECULE
*****
 38 42 0 0 0
SMALL
GASTEIGER

@<TRIPOS>ATOM
      1 C          59.6532   88.7831    8.0518 C.ar    1  UNL1        0.0648
      2 C          60.1888   89.8264    8.9870 C.ar    1  UNL1        0.0160
      3 C          61.0568   89.4236   10.1421 C.ar    1  UNL1        0.0043
      4 C          61.3891   87.9775   10.3621 C.ar    1  UNL1        0.0342
      5 C          60.8534   86.9342    9.4269 C.ar    1  UNL1        0.0043
      6 C          59.9855   87.3370    8.2718 C.ar    1  UNL1        0.0160
      7 C          62.2571   87.5747   11.5173 C.ar    1  UNL1        0.1447
      8 N          62.8541   88.6232   12.4083 N.ar    1  UNL1       -0.1943
      9 C          63.7221   88.2204   13.5634 C.ar    1  UNL1        0.2305
     10 C          63.9930   86.7689   13.8275 C.ar    1  UNL1        0.1097
     11 C          64.8028   86.0747   14.8822 C.ar    1  UNL1        0.1299
     12 N          64.7063   84.5971   14.6429 N.ar    1  UNL1       -0.1447
     13 N          63.8367   84.3780   13.4404 N.ar    1  UNL1       -0.1301
     14 C          63.3959   85.7203   12.9365 C.ar    1  UNL1        0.1692
     15 N          62.5280   86.1232   11.7814 N.ar    1  UNL1       -0.3223
     16 H          62.1361   85.4350   11.1966 H       1  UNL1        0.1688
     17 O          64.3192   89.2691   14.4544 O.3     1  UNL1       -0.4639
     18 C          64.9182   90.5080   13.8576 C.3     1  UNL1        0.1677
     19 C          66.1379   91.1242   14.4761 C.3     1  UNL1        0.0461
     20 C          66.7370   92.3631   13.8792 C.3     1  UNL1        0.0329
     21 C          66.1163   92.9858   12.6639 C.3     1  UNL1        0.1108
     22 O          66.7153   94.2247   12.0670 O.3     1  UNL1       -0.3845
     23 C          64.8966   92.3695   12.0454 C.3     1  UNL1        0.0329
     24 C          64.2975   91.1306   12.6422 C.3     1  UNL1        0.0461
     25 H          66.1966   94.4940   11.2928 H       1  UNL1        0.2103
     26 N          58.7852   89.1859    6.8966 N.pl3   1  UNL1       -0.2149
     27 H          57.8652   88.8419    6.8288 H       1  UNL1        0.1737
     28 O          58.1080   90.9844    5.9985 O.2     1  UNL1       -0.1499
     29 S          59.3189   90.1127    5.8449 S.O2    1  UNL1        0.0758
     30 O          60.5300   89.2409    5.6913 O.2     1  UNL1       -0.1499
     31 C          59.8527   91.0394    4.7932 C.ar    1  UNL1        0.1533
     32 C          61.3119   91.0190    4.4461 C.ar    1  UNL1        0.0339
     33 C          61.8457   91.9457    3.3943 C.ar    1  UNL1        0.0592
     34 CL         63.3049   91.9251    3.0473 Cl      1  UNL1       -0.0822
     35 C          60.9205   92.8930    2.6897 C.ar    1  UNL1        0.0138
     36 C          59.4613   92.9135    3.0368 C.ar    1  UNL1        0.0319
     37 C          58.9274   91.9867    4.0886 C.ar    1  UNL1        0.1589
     38 F          57.4683   92.0072    4.4356 F       1  UNL1       -0.2027
@<TRIPOS>BOND
     1    28    29    2
     2    29    30    2
     3    29    26    1
     4    26     1    1
     5     1     2   ar
     6     2     3   ar
     7     3     4   ar
     8     4     7    1
     9     7     8   ar
    10     8     9   ar
    11     9    17    1
    12    18    17    1
    13    18    19    1
    14    19    20    1
    15    20    21    1
    16    21    22    1
    17    21    23    1
    18    23    24    1
    19     9    10   ar
    20    10    11   ar
    21    11    12   ar
    22    12    13   ar
    23    13    14   ar
    24    14    15   ar
    25     4     5   ar
    26     5     6   ar
    27    29    31    1
    28    31    32   ar
    29    32    33   ar
    30    33    34    1
    31    33    35   ar
    32    35    36   ar
    33    36    37   ar
    34    37    38    1
    35     6     1   ar
    36    37    31   ar
    37    15     7   ar
    38    24    18    1
    39    14    10    1
    40    26    27    1
    41    22    25    1
    42    15    16    1
@<TRIPOS>MOLECULE
*****
 38 42 0 0 0
SMALL
GASTEIGER

@<TRIPOS>ATOM
      1 C          62.1219   88.3616   11.4632 C.ar    1  UNL1        0.0648
      2 C          62.0849   89.2394   10.2474 C.ar    1  UNL1        0.0160
      3 C          62.8999   90.4981   10.2062 C.ar    1  UNL1        0.0043
      4 C          63.7517   90.8789   11.3806 C.ar    1  UNL1        0.0342
      5 C          63.7886   90.0011   12.5964 C.ar    1  UNL1        0.0043
      6 C          62.9737   88.7425   12.6377 C.ar    1  UNL1        0.0160
      7 C          64.5666   92.1376   11.3393 C.ar    1  UNL1        0.1447
      8 N          65.0789   92.7415   12.6131 N.ar    1  UNL1       -0.1943
      9 C          65.8938   94.0002   12.5719 C.ar    1  UNL1        0.2305
     10 C          66.1965   94.6549   11.2567 C.ar    1  UNL1        0.1097
     11 C          66.9684   95.8921   10.9055 C.ar    1  UNL1        0.1299
     12 N          66.9332   96.0528    9.4146 N.ar    1  UNL1       -0.1447
     13 N          66.1396   94.9149    8.8443 N.ar    1  UNL1       -0.1301
     14 C          65.6842   94.0509    9.9828 C.ar    1  UNL1        0.1692
     15 N          64.8693   92.7923   10.0241 N.ar    1  UNL1       -0.3223
     16 H          64.5331   92.3959    9.1880 H       1  UNL1        0.1688
     17 O          66.4061   94.6041   13.8458 O.3     1  UNL1       -0.4639
     18 C          67.3622   93.8354   14.7089 C.3     1  UNL1        0.1677
     19 C          67.2432   92.3440   14.8157 C.3     1  UNL1        0.0461
     20 C          68.1993   91.5752   15.6787 C.3     1  UNL1        0.0329
     21 C          69.2744   92.2978   16.4349 C.3     1  UNL1        0.1108
     22 O          70.2306   91.5291   17.2980 O.3     1  UNL1       -0.3845
     23 C          69.3935   93.7893   16.3280 C.3     1  UNL1        0.0329
     24 C          68.4374   94.5581   15.4650 C.3     1  UNL1        0.0461
     25 H          70.8570   92.1428   17.7125 H       1  UNL1        0.2103
     26 N          61.3070   87.1030   11.5045 N.pl3   1  UNL1       -0.2149
     27 H          60.3320   87.1517   11.6324 H       1  UNL1        0.1737
     28 O          62.7029   85.9857   12.6462 O.2     1  UNL1       -0.1499
     29 S          61.9775   85.7700   11.3511 S.O2    1  UNL1        0.0758
     30 O          61.2522   85.5542   10.0559 O.2     1  UNL1       -0.1499
     31 C          62.6480   84.4370   11.1976 C.ar    1  UNL1        0.1533
     32 C          62.5099   83.3998   12.2724 C.ar    1  UNL1        0.0339
     33 C          63.1803   82.0668   12.1190 C.ar    1  UNL1        0.0592
     34 CL         63.0421   81.0296   13.1938 Cl      1  UNL1       -0.0822
     35 C          63.9890   81.7710   10.8908 C.ar    1  UNL1        0.0138
     36 C          64.1272   82.8081    9.8160 C.ar    1  UNL1        0.0319
     37 C          63.4567   84.1412    9.9694 C.ar    1  UNL1        0.1589
     38 F          63.5949   85.1784    8.8946 F       1  UNL1       -0.2027
@<TRIPOS>BOND
     1    28    29    2
     2    29    30    2
     3    29    26    1
     4    26     1    1
     5     1     2   ar
     6     2     3   ar
     7     3     4   ar
     8     4     7    1
     9     7     8   ar
    10     8     9   ar
    11     9    17    1
    12    18    17    1
    13    18    19    1
    14    19    20    1
    15    20    21    1
    16    21    22    1
    17    21    23    1
    18    23    24    1
    19     9    10   ar
    20    10    11   ar
    21    11    12   ar
    22    12    13   ar
    23    13    14   ar
    24    14    15   ar
    25     4     5   ar
    26     5     6   ar
    27    29    31    1
    28    31    32   ar
    29    32    33   ar
    30    33    34    1
    31    33    35   ar
    32    35    36   ar
    33    36    37   ar
    34    37    38    1
    35     6     1   ar
    36    37    31   ar
    37    15     7   ar
    38    24    18    1
    39    14    10    1
    40    26    27    1
    41    22    25    1
    42    15    16    1
@<TRIPOS>MOLECULE
*****
 38 42 0 0 0
SMALL
GASTEIGER

@<TRIPOS>ATOM
      1 C          64.8851   91.6527   13.4916 C.ar    1  UNL1        0.0648
      2 C          63.9717   90.9644   12.5211 C.ar    1  UNL1        0.0160
      3 C          63.6020   89.5258   12.7302 C.ar    1  UNL1        0.0043
      4 C          64.1456   88.7755   13.9098 C.ar    1  UNL1        0.0342
      5 C          65.0590   89.4638   14.8803 C.ar    1  UNL1        0.0043
      6 C          65.4287   90.9024   14.6713 C.ar    1  UNL1        0.0160
      7 C          63.7759   87.3369   14.1189 C.ar    1  UNL1        0.1447
      8 N          63.6308   86.4208   12.9401 N.ar    1  UNL1       -0.1943
      9 C          63.2611   84.9821   13.1492 C.ar    1  UNL1        0.2305
     10 C          63.0366   84.4597   14.5373 C.ar    1  UNL1        0.1097
     11 C          62.6654   83.0998   15.0499 C.ar    1  UNL1        0.1299
     12 N          62.5812   83.1754   16.5457 N.ar    1  UNL1       -0.1447
     13 N          62.9003   84.5821   16.9574 N.ar    1  UNL1       -0.1301
     14 C          63.1817   85.3758   15.7161 C.ar    1  UNL1        0.1692
     15 N          63.5514   86.8144   15.5069 N.ar    1  UNL1       -0.3223
     16 H          63.6467   87.4157   16.2806 H       1  UNL1        0.1688
     17 O          63.1159   84.0661   11.9703 O.3     1  UNL1       -0.4639
     18 C          62.6128   84.6009   10.6624 C.3     1  UNL1        0.1677
     19 C          63.3063   84.2318    9.3846 C.3     1  UNL1        0.0461
     20 C          62.8032   84.7666    8.0766 C.3     1  UNL1        0.0329
     21 C          61.6065   85.6705    8.0464 C.3     1  UNL1        0.1108
     22 O          61.1033   86.2054    6.7384 O.3     1  UNL1       -0.3845
     23 C          60.9130   86.0396    9.3242 C.3     1  UNL1        0.0329
     24 C          61.4161   85.5048   10.6322 C.3     1  UNL1        0.0461
     25 H          60.3295   86.7687    6.8957 H       1  UNL1        0.2103
     26 N          65.2548   93.0913   13.2826 N.pl3   1  UNL1       -0.2149
     27 H          65.0116   93.7652   13.9578 H       1  UNL1        0.1737
     28 O          67.2684   93.5849   12.8333 O.2     1  UNL1       -0.1499
     29 S          65.9951   93.5032   12.0447 S.O2    1  UNL1        0.0758
     30 O          64.7217   93.4215   11.2560 O.2     1  UNL1       -0.1499
     31 C          66.7353   93.9150   10.8068 C.ar    1  UNL1        0.1533
     32 C          67.5174   92.8993   10.0278 C.ar    1  UNL1        0.0339
     33 C          68.2576   93.3111    8.7898 C.ar    1  UNL1        0.0592
     34 CL         69.0397   92.2954    8.0109 Cl      1  UNL1       -0.0822
     35 C          68.2158   94.7385    8.3309 C.ar    1  UNL1        0.0138
     36 C          67.4338   95.7542    9.1098 C.ar    1  UNL1        0.0319
     37 C          66.6935   95.3424   10.3478 C.ar    1  UNL1        0.1589
     38 F          65.9115   96.3581   11.1268 F       1  UNL1       -0.2027
@<TRIPOS>BOND
     1    28    29    2
     2    29    30    2
     3    29    26    1
     4    26     1    1
     5     1     2   ar
     6     2     3   ar
     7     3     4   ar
     8     4     7    1
     9     7     8   ar
    10     8     9   ar
    11     9    17    1
    12    18    17    1
    13    18    19    1
    14    19    20    1
    15    20    21    1
    16    21    22    1
    17    21    23    1
    18    23    24    1
    19     9    10   ar
    20    10    11   ar
    21    11    12   ar
    22    12    13   ar
    23    13    14   ar
    24    14    15   ar
    25     4     5   ar
    26     5     6   ar
    27    29    31    1
    28    31    32   ar
    29    32    33   ar
    30    33    34    1
    31    33    35   ar
    32    35    36   ar
    33    36    37   ar
    34    37    38    1
    35     6     1   ar
    36    37    31   ar
    37    15     7   ar
    38    24    18    1
    39    14    10    1
    40    26    27    1
    41    22    25    1
    42    15    16    1
