@<TRIPOS>MOLECULE
*****
 40 45 0 0 0
SMALL
GASTEIGER

@<TRIPOS>ATOM
      1 C          65.8653   94.0091   11.8025 C.ar    1  UNL1        0.0830
      2 C          66.6710   94.3163   13.0298 C.ar    1  UNL1        0.0208
      3 C          66.6520   93.3721   14.1952 C.ar    1  UNL1        0.0238
      4 C          65.8274   92.1207   14.1332 C.ar    1  UNL1        0.1173
      5 N          65.6131   91.0100   15.1184 N.ar    1  UNL1       -0.2248
      6 C          64.6750   90.0164   14.4999 C.ar    1  UNL1        0.1515
      7 N          64.3095   90.5130   13.1325 N.ar    1  UNL1       -0.2754
      8 C          65.0217   91.8135   12.9058 C.ar    1  UNL1        0.1665
      9 N          65.0406   92.7577   11.7405 N.ar    1  UNL1       -0.2264
     10 N          68.2130   95.8713    7.5574 N.pl3   1  UNL1       -0.3570
     11 C          67.0581   95.8844    8.5145 C.ar    1  UNL1        0.0416
     12 C          65.9222   96.8417    8.3062 C.ar    1  UNL1        0.0141
     13 C          64.7673   96.8548    9.2634 C.ar    1  UNL1        0.0013
     14 C          64.7484   95.9106   10.4288 C.ar    1  UNL1        0.0016
     15 C          65.8842   94.9533   10.6371 C.ar    1  UNL1        0.0189
     16 C          67.0391   94.9402    9.6799 C.ar    1  UNL1        0.0156
     17 H          68.2254   96.4910    6.7925 H       1  UNL1        0.1424
     18 H          68.9585   95.2430    7.6941 H       1  UNL1        0.1424
     19 C          64.1879   88.7487   15.1369 C.ar    1  UNL1        0.0657
     20 C          64.6278   87.4205   14.5962 C.ar    1  UNL1        0.0074
     21 C          64.1407   86.1529   15.2333 C.ar    1  UNL1        0.0209
     22 C          63.2137   86.2135   16.4110 C.ar    1  UNL1        0.1003
     23 N          62.7738   87.5416   16.9517 N.ar    1  UNL1       -0.2295
     24 C          63.2609   88.8093   16.3146 C.ar    1  UNL1        0.1282
     25 N          62.8210   90.1375   16.8553 N.pl3   1  UNL1       -0.3425
     26 H          62.2126   90.1773   17.6283 H       1  UNL1        0.1437
     27 H          63.1407   90.9695   16.4372 H       1  UNL1        0.1437
     28 C          63.3927   89.8291   12.1620 C.ar    1  UNL1        0.0667
     29 C          63.2257   88.3392   12.2104 C.ar    1  UNL1        0.0173
     30 C          62.3089   87.6553   11.2399 C.ar    1  UNL1       -0.0015
     31 C          61.5591   88.4612   10.2211 C.ar    1  UNL1       -0.0097
     32 C          61.7260   89.9511   10.1727 C.ar    1  UNL1       -0.0015
     33 C          62.6428   90.6350   11.1431 C.ar    1  UNL1        0.0173
     34 C          60.6423   87.7773    9.2506 C.3     1  UNL1        0.0581
     35 N          61.0000   86.4490    9.8487 N.3     1  UNL1       -0.3200
     36 C          60.2846   89.1056    8.6525 C.3     1  UNL1        0.0185
     37 C          59.3678   88.4217    7.6821 C.3     1  UNL1        0.0033
     38 C          59.7255   87.0934    8.2802 C.3     1  UNL1        0.0185
     39 H          61.6689   86.5864   10.6065 H       1  UNL1        0.1191
     40 H          61.4158   85.8543    9.1319 H       1  UNL1        0.1191
@<TRIPOS>BOND
     1    10    11    1
     2    11    12   ar
     3    12    13   ar
     4    13    14   ar
     5    14    15   ar
     6    15     1    1
     7     1     2   ar
     8     2     3   ar
     9     3     4   ar
    10     4     5   ar
    11     5     6   ar
    12     6    19    1
    13    19    20   ar
    14    20    21   ar
    15    21    22   ar
    16    22    23   ar
    17    23    24   ar
    18    24    25    1
    19     6     7   ar
    20     7    28    1
    21    28    29   ar
    22    29    30   ar
    23    30    31   ar
    24    31    34    1
    25    34    35    1
    26    34    36    1
    27    36    37    1
    28    37    38    1
    29    31    32   ar
    30    32    33   ar
    31     7     8   ar
    32     8     9   ar
    33    15    16   ar
    34    16    11   ar
    35     9     1   ar
    36     8     4   ar
    37    24    19   ar
    38    33    28   ar
    39    38    34    1
    40    10    17    1
    41    10    18    1
    42    25    26    1
    43    25    27    1
    44    35    39    1
    45    35    40    1
@<TRIPOS>MOLECULE
*****
 40 45 0 0 0
SMALL
GASTEIGER

@<TRIPOS>ATOM
      1 C          59.7510   88.8547    7.4509 C.ar    1  UNL1        0.0830
      2 C          59.1650   87.4745    7.4125 C.ar    1  UNL1        0.0208
      3 C          59.5909   86.4506    8.4226 C.ar    1  UNL1        0.0238
      4 C          60.6026   86.8070    9.4711 C.ar    1  UNL1        0.1173
      5 N          61.2109   86.0139   10.5896 N.ar    1  UNL1       -0.2248
      6 C          62.1728   86.9040   11.3192 C.ar    1  UNL1        0.1515
      7 N          62.1590   88.2472   10.6517 N.ar    1  UNL1       -0.2754
      8 C          61.1886   88.1872    9.5095 C.ar    1  UNL1        0.1665
      9 N          60.7628   89.2111    8.4994 N.ar    1  UNL1       -0.2264
     10 N          55.9833   91.3493    4.8854 N.pl3   1  UNL1       -0.3570
     11 C          57.4413   91.1259    5.1580 C.ar    1  UNL1        0.0416
     12 C          58.4735   91.9265    4.4206 C.ar    1  UNL1        0.0141
     13 C          59.9315   91.7032    4.6933 C.ar    1  UNL1        0.0013
     14 C          60.3573   90.6792    5.7034 C.ar    1  UNL1        0.0016
     15 C          59.3252   89.8787    6.4408 C.ar    1  UNL1        0.0189
     16 C          57.8672   90.1021    6.1681 C.ar    1  UNL1        0.0156
     17 H          55.7038   92.0213    4.2224 H       1  UNL1        0.1424
     18 H          55.3059   90.8239    5.3693 H       1  UNL1        0.1424
     19 C          63.0029   86.5186   12.5078 C.ar    1  UNL1        0.0657
     20 C          63.5390   87.5787   13.4236 C.ar    1  UNL1        0.0074
     21 C          64.3690   87.1933   14.6121 C.ar    1  UNL1        0.0209
     22 C          64.6628   85.7478   14.8847 C.ar    1  UNL1        0.1003
     23 N          64.1267   84.6878   13.9689 N.ar    1  UNL1       -0.2295
     24 C          63.2967   85.0732   12.7804 C.ar    1  UNL1        0.1282
     25 N          62.7605   84.0131   11.8645 N.pl3   1  UNL1       -0.3425
     26 H          62.9533   83.0644   12.0435 H       1  UNL1        0.1437
     27 H          62.2157   84.2661   11.0845 H       1  UNL1        0.1437
     28 C          62.9728   89.4408   11.0554 C.ar    1  UNL1        0.0667
     29 C          63.3104   89.6646   12.4997 C.ar    1  UNL1        0.0173
     30 C          64.1241   90.8583   12.9035 C.ar    1  UNL1       -0.0015
     31 C          64.6003   91.8282   11.8630 C.ar    1  UNL1       -0.0097
     32 C          64.2627   91.6044   10.4187 C.ar    1  UNL1       -0.0015
     33 C          63.4489   90.4107   10.0150 C.ar    1  UNL1        0.0173
     34 C          65.4140   93.0218   12.2668 C.3     1  UNL1        0.0581
     35 N          65.4107   92.5432   13.6884 N.3     1  UNL1       -0.3200
     36 C          65.4174   93.5004   10.8452 C.3     1  UNL1        0.0185
     37 C          66.2311   94.6940   11.2489 C.3     1  UNL1        0.0033
     38 C          66.2278   94.2154   12.6705 C.3     1  UNL1        0.0185
     39 H          64.8882   91.6695   13.7517 H       1  UNL1        0.1191
     40 H          64.9712   93.2460   14.2827 H       1  UNL1        0.1191
@<TRIPOS>BOND
     1    10    11    1
     2    11    12   ar
     3    12    13   ar
     4    13    14   ar
     5    14    15   ar
     6    15     1    1
     7     1     2   ar
     8     2     3   ar
     9     3     4   ar
    10     4     5   ar
    11     5     6   ar
    12     6    19    1
    13    19    20   ar
    14    20    21   ar
    15    21    22   ar
    16    22    23   ar
    17    23    24   ar
    18    24    25    1
    19     6     7   ar
    20     7    28    1
    21    28    29   ar
    22    29    30   ar
    23    30    31   ar
    24    31    34    1
    25    34    35    1
    26    34    36    1
    27    36    37    1
    28    37    38    1
    29    31    32   ar
    30    32    33   ar
    31     7     8   ar
    32     8     9   ar
    33    15    16   ar
    34    16    11   ar
    35     9     1   ar
    36     8     4   ar
    37    24    19   ar
    38    33    28   ar
    39    38    34    1
    40    10    17    1
    41    10    18    1
    42    25    26    1
    43    25    27    1
    44    35    39    1
    45    35    40    1
@<TRIPOS>MOLECULE
*****
 40 45 0 0 0
SMALL
GASTEIGER

@<TRIPOS>ATOM
      1 C          63.5821   90.5907   12.9935 C.ar    1  UNL1        0.0830
      2 C          63.3301   91.6101   11.9225 C.ar    1  UNL1        0.0208
      3 C          62.8639   91.1727   10.5656 C.ar    1  UNL1        0.0238
      4 C          62.6496   89.7158   10.2798 C.ar    1  UNL1        0.1173
      5 N          62.1979   88.9907    9.0467 N.ar    1  UNL1       -0.2248
      6 C          62.1708   87.5232    9.3558 C.ar    1  UNL1        0.1515
      7 N          62.6057   87.3413   10.7798 N.ar    1  UNL1       -0.2754
      8 C          62.9015   88.6964   11.3509 C.ar    1  UNL1        0.1665
      9 N          63.3678   89.1338   12.7077 N.ar    1  UNL1       -0.2264
     10 N          66.8949   93.2734   15.9648 N.pl3   1  UNL1       -0.3570
     11 C          65.7048   92.3695   15.8361 C.ar    1  UNL1        0.0416
     12 C          64.9811   91.9029   17.0644 C.ar    1  UNL1        0.0141
     13 C          63.7910   90.9989   16.9357 C.ar    1  UNL1        0.0013
     14 C          63.3247   90.5615   15.5787 C.ar    1  UNL1        0.0016
     15 C          64.0484   91.0281   14.3505 C.ar    1  UNL1        0.0189
     16 C          65.2385   91.9321   14.4792 C.ar    1  UNL1        0.0156
     17 H          67.2010   93.5605   16.8554 H       1  UNL1        0.1424
     18 H          67.3699   93.5797   15.1587 H       1  UNL1        0.1424
     19 C          61.7779   86.4295    8.4073 C.ar    1  UNL1        0.0657
     20 C          62.8194   85.4946    7.8677 C.ar    1  UNL1        0.0074
     21 C          62.4264   84.4010    6.9193 C.ar    1  UNL1        0.0209
     22 C          60.9919   84.2422    6.5106 C.ar    1  UNL1        0.1003
     23 N          59.9504   85.1771    7.0502 N.ar    1  UNL1       -0.2295
     24 C          60.3434   86.2707    7.9986 C.ar    1  UNL1        0.1282
     25 N          59.3019   87.2057    8.5383 N.pl3   1  UNL1       -0.3425
     26 H          58.3604   87.1015    8.2700 H       1  UNL1        0.1437
     27 H          59.5598   87.9235    9.1607 H       1  UNL1        0.1437
     28 C          62.7239   86.0338   11.5054 C.ar    1  UNL1        0.0667
     29 C          62.4472   84.7481   10.7841 C.ar    1  UNL1        0.0173
     30 C          62.5655   83.4406   11.5098 C.ar    1  UNL1       -0.0015
     31 C          62.9604   83.4188   12.9566 C.ar    1  UNL1       -0.0097
     32 C          63.2371   84.7046   13.6779 C.ar    1  UNL1       -0.0015
     33 C          63.1188   86.0120   12.9523 C.ar    1  UNL1        0.0173
     34 C          63.0786   82.1113   13.6823 C.3     1  UNL1        0.0581
     35 N          63.8155   82.7956   14.7952 N.3     1  UNL1       -0.3200
     36 C          62.3417   81.4270   12.5693 C.3     1  UNL1        0.0185
     37 C          62.4599   80.1195   13.2949 C.3     1  UNL1        0.0033
     38 C          63.1968   80.8039   14.4079 C.3     1  UNL1        0.0185
     39 H          63.9067   83.7890   14.5823 H       1  UNL1        0.1191
     40 H          64.7429   82.3824   14.8935 H       1  UNL1        0.1191
@<TRIPOS>BOND
     1    10    11    1
     2    11    12   ar
     3    12    13   ar
     4    13    14   ar
     5    14    15   ar
     6    15     1    1
     7     1     2   ar
     8     2     3   ar
     9     3     4   ar
    10     4     5   ar
    11     5     6   ar
    12     6    19    1
    13    19    20   ar
    14    20    21   ar
    15    21    22   ar
    16    22    23   ar
    17    23    24   ar
    18    24    25    1
    19     6     7   ar
    20     7    28    1
    21    28    29   ar
    22    29    30   ar
    23    30    31   ar
    24    31    34    1
    25    34    35    1
    26    34    36    1
    27    36    37    1
    28    37    38    1
    29    31    32   ar
    30    32    33   ar
    31     7     8   ar
    32     8     9   ar
    33    15    16   ar
    34    16    11   ar
    35     9     1   ar
    36     8     4   ar
    37    24    19   ar
    38    33    28   ar
    39    38    34    1
    40    10    17    1
    41    10    18    1
    42    25    26    1
    43    25    27    1
    44    35    39    1
    45    35    40    1
@<TRIPOS>MOLECULE
*****
 40 45 0 0 0
SMALL
GASTEIGER

@<TRIPOS>ATOM
      1 C          65.3697   91.8032   12.8641 C.ar    1  UNL1        0.0830
      2 C          65.0752   92.8679   11.8495 C.ar    1  UNL1        0.0208
      3 C          64.1394   92.5823   10.7126 C.ar    1  UNL1        0.0238
      4 C          63.4980   91.2318   10.5903 C.ar    1  UNL1        0.1173
      5 N          62.5409   90.6625    9.5853 N.ar    1  UNL1       -0.2248
      6 C          62.2440   89.2459    9.9788 C.ar    1  UNL1        0.1515
      7 N          63.0174   88.9397   11.2270 N.ar    1  UNL1       -0.2754
      8 C          63.7925   90.1670   11.6050 C.ar    1  UNL1        0.1665
      9 N          64.7283   90.4527   12.7418 N.ar    1  UNL1       -0.2264
     10 N          70.1968   92.5267   14.6460 N.pl3   1  UNL1       -0.3570
     11 C          68.7191   92.4505   14.8920 C.ar    1  UNL1        0.0416
     12 C          68.1772   92.6601   16.2750 C.ar    1  UNL1        0.0141
     13 C          66.6995   92.5840   16.5210 C.ar    1  UNL1        0.0013
     14 C          65.7636   92.2983   15.3840 C.ar    1  UNL1        0.0016
     15 C          66.3055   92.0888   14.0011 C.ar    1  UNL1        0.0189
     16 C          67.7833   92.1649   13.7551 C.ar    1  UNL1        0.0156
     17 H          70.8111   92.7141   15.3922 H       1  UNL1        0.1424
     18 H          70.5525   92.3891   13.7383 H       1  UNL1        0.1424
     19 C          61.3333   88.3012    9.2518 C.ar    1  UNL1        0.0657
     20 C          61.8121   86.9262    8.8913 C.ar    1  UNL1        0.0074
     21 C          60.9015   85.9816    8.1643 C.ar    1  UNL1        0.0209
     22 C          59.5121   86.4121    7.7979 C.ar    1  UNL1        0.1003
     23 N          59.0333   87.7871    8.1584 N.ar    1  UNL1       -0.2295
     24 C          59.9439   88.7317    8.8854 C.ar    1  UNL1        0.1282
     25 N          59.4652   90.1068    9.2459 N.pl3   1  UNL1       -0.3425
     26 H          58.5533   90.3893    9.0054 H       1  UNL1        0.1437
     27 H          60.0628   90.7267    9.7231 H       1  UNL1        0.1437
     28 C          63.0161   87.6351   11.9674 C.ar    1  UNL1        0.0667
     29 C          62.3056   86.4464   11.3911 C.ar    1  UNL1        0.0173
     30 C          62.3043   85.1418   12.1314 C.ar    1  UNL1       -0.0015
     31 C          63.0135   85.0259   13.4480 C.ar    1  UNL1       -0.0097
     32 C          63.7240   86.2146   14.0243 C.ar    1  UNL1       -0.0015
     33 C          63.7253   87.5192   13.2840 C.ar    1  UNL1        0.0173
     34 C          63.0122   83.7213   14.1884 C.3     1  UNL1        0.0581
     35 N          63.3862   84.4380   15.4519 N.3     1  UNL1       -0.3200
     36 C          62.6381   83.0047   12.9249 C.3     1  UNL1        0.0185
     37 C          62.6368   81.7001   13.6652 C.3     1  UNL1        0.0033
     38 C          63.0108   82.4168   14.9287 C.3     1  UNL1        0.0185
     39 H          63.4719   85.4368   15.2636 H       1  UNL1        0.1191
     40 H          64.2771   84.0791   15.7953 H       1  UNL1        0.1191
@<TRIPOS>BOND
     1    10    11    1
     2    11    12   ar
     3    12    13   ar
     4    13    14   ar
     5    14    15   ar
     6    15     1    1
     7     1     2   ar
     8     2     3   ar
     9     3     4   ar
    10     4     5   ar
    11     5     6   ar
    12     6    19    1
    13    19    20   ar
    14    20    21   ar
    15    21    22   ar
    16    22    23   ar
    17    23    24   ar
    18    24    25    1
    19     6     7   ar
    20     7    28    1
    21    28    29   ar
    22    29    30   ar
    23    30    31   ar
    24    31    34    1
    25    34    35    1
    26    34    36    1
    27    36    37    1
    28    37    38    1
    29    31    32   ar
    30    32    33   ar
    31     7     8   ar
    32     8     9   ar
    33    15    16   ar
    34    16    11   ar
    35     9     1   ar
    36     8     4   ar
    37    24    19   ar
    38    33    28   ar
    39    38    34    1
    40    10    17    1
    41    10    18    1
    42    25    26    1
    43    25    27    1
    44    35    39    1
    45    35    40    1
