@<TRIPOS>MOLECULE
*****
 27 30 0 0 0
SMALL
GASTEIGER

@<TRIPOS>ATOM
      1 C          62.7650   81.6006   12.3590 C.2     1  UNL1        0.0919
      2 C          62.6889   81.7526   13.8493 C.2     1  UNL1        0.0183
      3 C          62.7470   83.1179   14.4679 C.2     1  UNL1        0.0511
      4 C          62.8812   84.3311   13.5962 C.2     1  UNL1        0.2322
      5 N          62.9633   85.7940   13.9177 N.2     1  UNL1       -0.0308
      6 C          63.0902   86.5460   12.6260 C.2     1  UNL1        0.3760
      7 N          63.0865   85.5480   11.5063 N.2     1  UNL1       -0.0347
      8 C          62.9573   84.1791   12.1059 C.2     1  UNL1        0.2191
      9 C          62.8992   82.8138   11.4873 C.3     1  UNL1        0.1226
     10 C          63.2013   88.0348   12.4799 C.ar    1  UNL1        0.0989
     11 C          62.5238   88.7287   11.3355 C.ar    1  UNL1        0.0085
     12 C          62.6349   90.2174   11.1893 C.ar    1  UNL1        0.0003
     13 C          63.4234   91.0122   12.1875 C.ar    1  UNL1        0.0008
     14 C          64.1008   90.3183   13.3319 C.ar    1  UNL1        0.0108
     15 C          63.9898   88.8297   13.4781 C.ar    1  UNL1        0.0651
     16 CL         64.6672   88.1358   14.6225 Cl      1  UNL1       -0.0820
     17 C          64.8893   91.1133   14.3302 C.ar    1  UNL1        0.0008
     18 C          64.2838   91.4627   15.6572 C.ar    1  UNL1        0.0000
     19 C          65.0723   92.2576   16.6554 C.ar    1  UNL1        0.0000
     20 C          66.4663   92.7030   16.3265 C.ar    1  UNL1        0.0000
     21 C          67.0719   92.3536   14.9994 C.ar    1  UNL1        0.0000
     22 C          66.2834   91.5587   14.0013 C.ar    1  UNL1        0.0000
     23 S          62.7068   80.2353   11.7404 S.O2    1  UNL1        0.0054
     24 O          62.2993   79.6540   13.0618 O.2     1  UNL1       -0.1689
     25 O          63.1144   80.8166   10.4191 O.2     1  UNL1       -0.1689
     26 C          62.7367   78.7172    9.6323 C.3     1  UNL1        0.0276
     27 C          62.6487   78.8700   11.1219 C.3     1  UNL1        0.1556
@<TRIPOS>BOND
     1    26    27    1
     2    27    23    1
     3    23    24    2
     4    23    25    2
     5    23     1    1
     6     1     2    2
     7     2     3    1
     8     3     4    2
     9     4     5    1
    10     5     6    2
    11     6    10    1
    12    10    11   ar
    13    11    12   ar
    14    12    13   ar
    15    13    14   ar
    16    14    17    1
    17    17    18   ar
    18    18    19   ar
    19    19    20   ar
    20    20    21   ar
    21    21    22   ar
    22    14    15   ar
    23    15    16    1
    24     6     7    1
    25     7     8    2
    26     8     9    1
    27     9     1    1
    28     8     4    1
    29    15    10   ar
    30    22    17   ar
@<TRIPOS>MOLECULE
*****
 27 30 0 0 0
SMALL
GASTEIGER

@<TRIPOS>ATOM
      1 C          65.2558   92.7552   11.8009 C.2     1  UNL1        0.0919
      2 C          64.2619   92.2511   10.7970 C.2     1  UNL1        0.0183
      3 C          63.5227   90.9709   11.0511 C.2     1  UNL1        0.0511
      4 C          63.7775   90.1947   12.3091 C.2     1  UNL1        0.2322
      5 N          63.2044   88.9098   12.8292 N.2     1  UNL1       -0.0308
      6 C          63.8442   88.6198   14.1546 C.2     1  UNL1        0.3760
      7 N          64.8127   89.7254   14.4536 N.2     1  UNL1       -0.0347
      8 C          64.7715   90.6988   13.3130 C.2     1  UNL1        0.2191
      9 C          65.5106   91.9790   13.0589 C.3     1  UNL1        0.1226
     10 C          63.5645   87.4324   15.0276 C.ar    1  UNL1        0.0989
     11 C          63.3828   87.6144   16.5054 C.ar    1  UNL1        0.0085
     12 C          63.1032   86.4271   17.3785 C.ar    1  UNL1        0.0003
     13 C          63.0051   85.0580   16.7737 C.ar    1  UNL1        0.0008
     14 C          63.1867   84.8761   15.2959 C.ar    1  UNL1        0.0108
     15 C          63.4664   86.0633   14.4228 C.ar    1  UNL1        0.0651
     16 CL         63.6480   85.8814   12.9450 Cl      1  UNL1       -0.0820
     17 C          63.0887   83.5068   14.6911 C.ar    1  UNL1        0.0008
     18 C          64.2797   82.9008   14.0098 C.ar    1  UNL1        0.0000
     19 C          64.1816   81.5317   13.4051 C.ar    1  UNL1        0.0000
     20 C          62.8925   80.7685   13.4817 C.ar    1  UNL1        0.0000
     21 C          61.7015   81.3745   14.1630 C.ar    1  UNL1        0.0000
     22 C          61.7996   82.7437   14.7677 C.ar    1  UNL1        0.0000
     23 S          65.9950   94.0354   11.5467 S.O2    1  UNL1        0.0054
     24 O          66.0931   94.2722   13.0247 O.2     1  UNL1       -0.1689
     25 O          65.8969   93.7987   10.0688 O.2     1  UNL1       -0.1689
     26 C          65.9789   96.6054   11.1659 C.3     1  UNL1        0.0276
     27 C          66.7342   95.3157   11.2926 C.3     1  UNL1        0.1556
@<TRIPOS>BOND
     1    26    27    1
     2    27    23    1
     3    23    24    2
     4    23    25    2
     5    23     1    1
     6     1     2    2
     7     2     3    1
     8     3     4    2
     9     4     5    1
    10     5     6    2
    11     6    10    1
    12    10    11   ar
    13    11    12   ar
    14    12    13   ar
    15    13    14   ar
    16    14    17    1
    17    17    18   ar
    18    18    19   ar
    19    19    20   ar
    20    20    21   ar
    21    21    22   ar
    22    14    15   ar
    23    15    16    1
    24     6     7    1
    25     7     8    2
    26     8     9    1
    27     9     1    1
    28     8     4    1
    29    15    10   ar
    30    22    17   ar
@<TRIPOS>MOLECULE
*****
 27 30 0 0 0
SMALL
GASTEIGER

@<TRIPOS>ATOM
      1 C          65.9267   93.3651   12.1791 C.2     1  UNL1        0.0919
      2 C          66.4722   93.8513   13.4890 C.2     1  UNL1        0.0183
      3 C          66.2538   93.0482   14.7369 C.2     1  UNL1        0.0511
      4 C          65.4899   91.7588   14.6749 C.2     1  UNL1        0.2322
      5 N          65.1190   90.7601   15.7308 N.2     1  UNL1       -0.0308
      6 C          64.3443   89.6565   15.0734 C.2     1  UNL1        0.3760
      7 N          64.2364   89.9732   13.6113 N.2     1  UNL1       -0.0347
      8 C          64.9444   91.2726   13.3649 C.2     1  UNL1        0.2191
      9 C          65.1628   92.0757   12.1170 C.3     1  UNL1        0.1226
     10 C          63.7771   88.4484   15.7581 C.ar    1  UNL1        0.0989
     11 C          63.1770   88.5748   17.1270 C.ar    1  UNL1        0.0085
     12 C          62.6098   87.3667   17.8117 C.ar    1  UNL1        0.0003
     13 C          62.6428   86.0323   17.1276 C.ar    1  UNL1        0.0008
     14 C          63.2430   85.9059   15.7587 C.ar    1  UNL1        0.0108
     15 C          63.8101   87.1140   15.0740 C.ar    1  UNL1        0.0651
     16 CL         64.4103   86.9876   13.7051 Cl      1  UNL1       -0.0820
     17 C          63.2759   84.5714   15.0745 C.ar    1  UNL1        0.0008
     18 C          62.0291   83.7421   14.9876 C.ar    1  UNL1        0.0000
     19 C          62.0621   82.4076   14.3034 C.ar    1  UNL1        0.0000
     20 C          63.3420   81.9025   13.7062 C.ar    1  UNL1        0.0000
     21 C          64.5888   82.7317   13.7931 C.ar    1  UNL1        0.0000
     22 C          64.5558   84.0662   14.4772 C.ar    1  UNL1        0.0000
     23 S          66.1452   94.1682   10.9312 S.O2    1  UNL1        0.0054
     24 O          66.1808   92.9044   10.1240 O.2     1  UNL1       -0.1689
     25 O          66.1096   95.4320   11.7383 O.2     1  UNL1       -0.1689
     26 C          67.5955   94.7518    8.8561 C.3     1  UNL1        0.0276
     27 C          66.3636   94.9713    9.6833 C.3     1  UNL1        0.1556
@<TRIPOS>BOND
     1    26    27    1
     2    27    23    1
     3    23    24    2
     4    23    25    2
     5    23     1    1
     6     1     2    2
     7     2     3    1
     8     3     4    2
     9     4     5    1
    10     5     6    2
    11     6    10    1
    12    10    11   ar
    13    11    12   ar
    14    12    13   ar
    15    13    14   ar
    16    14    17    1
    17    17    18   ar
    18    18    19   ar
    19    19    20   ar
    20    20    21   ar
    21    21    22   ar
    22    14    15   ar
    23    15    16    1
    24     6     7    1
    25     7     8    2
    26     8     9    1
    27     9     1    1
    28     8     4    1
    29    15    10   ar
    30    22    17   ar
@<TRIPOS>MOLECULE
*****
 27 30 0 0 0
SMALL
GASTEIGER

@<TRIPOS>ATOM
      1 C          62.7506   85.2942   13.0462 C.2     1  UNL1        0.0919
      2 C          62.0424   85.8849   11.8632 C.2     1  UNL1        0.0183
      3 C          62.2525   87.3266   11.5063 C.2     1  UNL1        0.0511
      4 C          63.1709   88.1776   12.3323 C.2     1  UNL1        0.2322
      5 N          63.5717   89.6190   12.2243 N.2     1  UNL1       -0.0308
      6 C          64.5277   89.9192   13.3406 C.2     1  UNL1        0.3760
      7 N          64.7178   88.6633   14.1384 N.2     1  UNL1       -0.0347
      8 C          63.8792   87.5869   13.5152 C.2     1  UNL1        0.2191
      9 C          63.6690   86.1452   13.8722 C.3     1  UNL1        0.1226
     10 C          65.1793   91.2429   13.6114 C.ar    1  UNL1        0.0989
     11 C          65.5482   91.6242   15.0144 C.ar    1  UNL1        0.0085
     12 C          66.1997   92.9478   15.2853 C.ar    1  UNL1        0.0003
     13 C          66.4824   93.8902   14.1530 C.ar    1  UNL1        0.0008
     14 C          66.1135   93.5089   12.7500 C.ar    1  UNL1        0.0108
     15 C          65.4620   92.1853   12.4791 C.ar    1  UNL1        0.0651
     16 CL         65.0932   91.8040   11.0761 Cl      1  UNL1       -0.0820
     17 C          66.3963   94.4514   11.6177 C.ar    1  UNL1        0.0008
     18 C          66.9790   93.9317   10.3370 C.ar    1  UNL1        0.0000
     19 C          67.2617   94.8741    9.2049 C.ar    1  UNL1        0.0000
     20 C          66.9617   96.3363    9.3534 C.ar    1  UNL1        0.0000
     21 C          66.3789   96.8560   10.6341 C.ar    1  UNL1        0.0000
     22 C          66.0962   95.9135   11.7663 C.ar    1  UNL1        0.0000
     23 S          62.5405   83.8526   13.4032 S.O2    1  UNL1        0.0054
     24 O          62.7400   83.4679   11.9671 O.2     1  UNL1       -0.1689
     25 O          62.3410   84.2372   14.8392 O.2     1  UNL1       -0.1689
     26 C          62.6157   81.3390   12.7504 C.3     1  UNL1        0.0276
     27 C          62.3304   82.4109   13.7601 C.3     1  UNL1        0.1556
@<TRIPOS>BOND
     1    26    27    1
     2    27    23    1
     3    23    24    2
     4    23    25    2
     5    23     1    1
     6     1     2    2
     7     2     3    1
     8     3     4    2
     9     4     5    1
    10     5     6    2
    11     6    10    1
    12    10    11   ar
    13    11    12   ar
    14    12    13   ar
    15    13    14   ar
    16    14    17    1
    17    17    18   ar
    18    18    19   ar
    19    19    20   ar
    20    20    21   ar
    21    21    22   ar
    22    14    15   ar
    23    15    16    1
    24     6     7    1
    25     7     8    2
    26     8     9    1
    27     9     1    1
    28     8     4    1
    29    15    10   ar
    30    22    17   ar
@<TRIPOS>MOLECULE
*****
 27 30 0 0 0
SMALL
GASTEIGER

@<TRIPOS>ATOM
      1 C          66.6688   92.5543   14.2023 C.2     1  UNL1        0.0919
      2 C          66.5811   93.4197   12.9802 C.2     1  UNL1        0.0183
      3 C          65.5517   93.1299   11.9283 C.2     1  UNL1        0.0511
      4 C          64.6100   91.9748   12.0985 C.2     1  UNL1        0.2322
      5 N          63.5007   91.4489   11.2368 N.2     1  UNL1       -0.0308
      6 C          62.9027   90.2584   11.9263 C.2     1  UNL1        0.3760
      7 N          63.6425   90.0487   13.2141 N.2     1  UNL1       -0.0347
      8 C          64.6977   91.1095   13.3206 C.2     1  UNL1        0.2191
      9 C          65.7271   91.3992   14.3724 C.3     1  UNL1        0.1226
     10 C          61.7647   89.4242   11.4172 C.ar    1  UNL1        0.0989
     11 C          60.3894   89.6031   11.9886 C.ar    1  UNL1        0.0085
     12 C          59.2514   88.7690   11.4796 C.ar    1  UNL1        0.0003
     13 C          59.4887   87.7560   10.3991 C.ar    1  UNL1        0.0008
     14 C          60.8640   87.5771    9.8277 C.ar    1  UNL1        0.0108
     15 C          62.0020   88.4112   10.3367 C.ar    1  UNL1        0.0651
     16 CL         63.3773   88.2323    9.7653 Cl      1  UNL1       -0.0820
     17 C          61.1013   86.5640    8.7472 C.ar    1  UNL1        0.0008
     18 C          62.4388   85.8960    8.6260 C.ar    1  UNL1        0.0000
     19 C          62.6760   84.8830    7.5456 C.ar    1  UNL1        0.0000
     20 C          61.5757   84.5380    6.5862 C.ar    1  UNL1        0.0000
     21 C          60.2382   85.2060    6.7074 C.ar    1  UNL1        0.0000
     22 C          60.0010   86.2191    7.7878 C.ar    1  UNL1        0.0000
     23 S          67.6982   92.8441   15.2541 S.O2    1  UNL1        0.0054
     24 O          68.7744   92.8121   14.2097 O.2     1  UNL1       -0.1689
     25 O          66.6220   92.8760   16.2985 O.2     1  UNL1       -0.1689
     26 C          69.5963   94.3511   16.1901 C.3     1  UNL1        0.0276
     27 C          68.7275   93.1338   16.3060 C.3     1  UNL1        0.1556
@<TRIPOS>BOND
     1    26    27    1
     2    27    23    1
     3    23    24    2
     4    23    25    2
     5    23     1    1
     6     1     2    2
     7     2     3    1
     8     3     4    2
     9     4     5    1
    10     5     6    2
    11     6    10    1
    12    10    11   ar
    13    11    12   ar
    14    12    13   ar
    15    13    14   ar
    16    14    17    1
    17    17    18   ar
    18    18    19   ar
    19    19    20   ar
    20    20    21   ar
    21    21    22   ar
    22    14    15   ar
    23    15    16    1
    24     6     7    1
    25     7     8    2
    26     8     9    1
    27     9     1    1
    28     8     4    1
    29    15    10   ar
    30    22    17   ar
@<TRIPOS>MOLECULE
*****
 27 30 0 0 0
SMALL
GASTEIGER

@<TRIPOS>ATOM
      1 C          66.5068   92.6051   14.4184 C.2     1  UNL1        0.0919
      2 C          66.1002   93.4050   13.2164 C.2     1  UNL1        0.0183
      3 C          65.1722   92.8107   12.1988 C.2     1  UNL1        0.0511
      4 C          64.6507   91.4164   12.3832 C.2     1  UNL1        0.2322
      5 N          63.7292   90.5716   11.5543 N.2     1  UNL1       -0.0308
      6 C          63.5663   89.2495   12.2440 C.2     1  UNL1        0.3760
      7 N          64.3871   89.2772   13.4991 N.2     1  UNL1       -0.0347
      8 C          65.0574   90.6165   13.5852 C.2     1  UNL1        0.2191
      9 C          65.9854   91.2108   14.6027 C.3     1  UNL1        0.1226
     10 C          62.7294   88.1014   11.7629 C.ar    1  UNL1        0.0989
     11 C          61.6555   88.3323   10.7414 C.ar    1  UNL1        0.0085
     12 C          60.8186   87.1842   10.2603 C.ar    1  UNL1        0.0003
     13 C          61.0556   85.8052   10.8007 C.ar    1  UNL1        0.0008
     14 C          62.1295   85.5743   11.8222 C.ar    1  UNL1        0.0108
     15 C          62.9664   86.7223   12.3033 C.ar    1  UNL1        0.0651
     16 CL         64.0403   86.4914   13.3247 Cl      1  UNL1       -0.0820
     17 C          62.3665   84.1951   12.3625 C.ar    1  UNL1        0.0008
     18 C          62.7894   83.0906   11.4400 C.ar    1  UNL1        0.0000
     19 C          63.0264   81.7116   11.9804 C.ar    1  UNL1        0.0000
     20 C          62.8405   81.4371   13.4433 C.ar    1  UNL1        0.0000
     21 C          62.4175   82.5416   14.3658 C.ar    1  UNL1        0.0000
     22 C          62.1805   83.9207   13.8254 C.ar    1  UNL1        0.0000
     23 S          67.4349   93.1994   15.4359 S.O2    1  UNL1        0.0054
     24 O          66.3626   93.0881   16.4789 O.2     1  UNL1       -0.1689
     25 O          68.5072   93.3108   14.3930 O.2     1  UNL1       -0.1689
     26 C          69.7294   94.2562   16.0427 C.3     1  UNL1        0.0276
     27 C          68.3629   93.7938   16.4535 C.3     1  UNL1        0.1556
@<TRIPOS>BOND
     1    26    27    1
     2    27    23    1
     3    23    24    2
     4    23    25    2
     5    23     1    1
     6     1     2    2
     7     2     3    1
     8     3     4    2
     9     4     5    1
    10     5     6    2
    11     6    10    1
    12    10    11   ar
    13    11    12   ar
    14    12    13   ar
    15    13    14   ar
    16    14    17    1
    17    17    18   ar
    18    18    19   ar
    19    19    20   ar
    20    20    21   ar
    21    21    22   ar
    22    14    15   ar
    23    15    16    1
    24     6     7    1
    25     7     8    2
    26     8     9    1
    27     9     1    1
    28     8     4    1
    29    15    10   ar
    30    22    17   ar
@<TRIPOS>MOLECULE
*****
 27 30 0 0 0
SMALL
GASTEIGER

@<TRIPOS>ATOM
      1 C          60.9502   87.0594    8.7260 C.2     1  UNL1        0.0919
      2 C          60.1448   88.3168    8.5844 C.2     1  UNL1        0.0183
      3 C          60.2802   89.4125    9.5998 C.2     1  UNL1        0.0511
      4 C          61.2209   89.2508   10.7569 C.2     1  UNL1        0.2322
      5 N          61.5629   90.1521   11.9060 N.2     1  UNL1       -0.0308
      6 C          62.5797   89.4518   12.7578 C.2     1  UNL1        0.3760
      7 N          62.8662   88.1175   12.1351 N.2     1  UNL1       -0.0347
      8 C          62.0263   87.9933   10.8984 C.2     1  UNL1        0.2191
      9 C          61.8910   86.8977    9.8830 C.3     1  UNL1        0.1226
     10 C          63.2010   89.9910   14.0122 C.ar    1  UNL1        0.0989
     11 C          62.4941   89.8357   15.3260 C.ar    1  UNL1        0.0085
     12 C          63.1154   90.3749   16.5803 C.ar    1  UNL1        0.0003
     13 C          64.4435   91.0694   16.5207 C.ar    1  UNL1        0.0008
     14 C          65.1504   91.2247   15.2069 C.ar    1  UNL1        0.0108
     15 C          64.5292   90.6855   13.9526 C.ar    1  UNL1        0.0651
     16 CL         65.2361   90.8408   12.6388 Cl      1  UNL1       -0.0820
     17 C          66.4787   91.9193   15.1474 C.ar    1  UNL1        0.0008
     18 C          66.8049   92.9998   16.1353 C.ar    1  UNL1        0.0000
     19 C          68.1330   93.6943   16.0758 C.ar    1  UNL1        0.0000
     20 C          69.1350   93.3083   15.0284 C.ar    1  UNL1        0.0000
     21 C          68.8088   92.2277   14.0405 C.ar    1  UNL1        0.0000
     22 C          67.4806   91.5332   14.1000 C.ar    1  UNL1        0.0000
     23 S          60.8149   85.9637    7.7105 S.O2    1  UNL1        0.0054
     24 O          62.2370   85.5570    7.9598 O.2     1  UNL1       -0.1689
     25 O          59.3927   86.3704    7.4612 O.2     1  UNL1       -0.1689
     26 C          61.8881   84.3800    5.9527 C.3     1  UNL1        0.0276
     27 C          60.6795   84.8680    6.6951 C.3     1  UNL1        0.1556
@<TRIPOS>BOND
     1    26    27    1
     2    27    23    1
     3    23    24    2
     4    23    25    2
     5    23     1    1
     6     1     2    2
     7     2     3    1
     8     3     4    2
     9     4     5    1
    10     5     6    2
    11     6    10    1
    12    10    11   ar
    13    11    12   ar
    14    12    13   ar
    15    13    14   ar
    16    14    17    1
    17    17    18   ar
    18    18    19   ar
    19    19    20   ar
    20    20    21   ar
    21    21    22   ar
    22    14    15   ar
    23    15    16    1
    24     6     7    1
    25     7     8    2
    26     8     9    1
    27     9     1    1
    28     8     4    1
    29    15    10   ar
    30    22    17   ar
@<TRIPOS>MOLECULE
*****
 27 30 0 0 0
SMALL
GASTEIGER

@<TRIPOS>ATOM
      1 C          62.8312   81.7872   12.3733 C.2     1  UNL1        0.0919
      2 C          62.2094   81.3457   13.6650 C.2     1  UNL1        0.0183
      3 C          62.0667   82.3169   14.7992 C.2     1  UNL1        0.0511
      4 C          62.5457   83.7296   14.6417 C.2     1  UNL1        0.2322
      5 N          62.5383   84.9022   15.5770 N.2     1  UNL1       -0.0308
      6 C          63.1554   86.0684   14.8634 C.2     1  UNL1        0.3760
      7 N          63.5443   85.6165   13.4870 N.2     1  UNL1       -0.0347
      8 C          63.1675   84.1711   13.3500 C.2     1  UNL1        0.2191
      9 C          63.3102   83.1998   12.2158 C.3     1  UNL1        0.1226
     10 C          63.3496   87.4448   15.4273 C.ar    1  UNL1        0.0989
     11 C          62.9747   87.7317   16.8511 C.ar    1  UNL1        0.0085
     12 C          63.1688   89.1080   17.4150 C.ar    1  UNL1        0.0003
     13 C          63.7379   90.1974   16.5552 C.ar    1  UNL1        0.0008
     14 C          64.1128   89.9104   15.1314 C.ar    1  UNL1        0.0108
     15 C          63.9187   88.5341   14.5675 C.ar    1  UNL1        0.0651
     16 CL         64.2936   88.2472   13.1437 Cl      1  UNL1       -0.0820
     17 C          64.6819   90.9999   14.2716 C.ar    1  UNL1        0.0008
     18 C          65.8155   91.8410   14.7791 C.ar    1  UNL1        0.0000
     19 C          66.3845   92.9304   13.9192 C.ar    1  UNL1        0.0000
     20 C          65.8200   93.1787   12.5519 C.ar    1  UNL1        0.0000
     21 C          64.6865   92.3376   12.0443 C.ar    1  UNL1        0.0000
     22 C          64.1175   91.2482   12.9042 C.ar    1  UNL1        0.0000
     23 S          62.9739   80.8159   11.2391 S.O2    1  UNL1        0.0054
     24 O          63.4255   81.9300   10.3420 O.2     1  UNL1       -0.1689
     25 O          62.5223   79.7019   12.1363 O.2     1  UNL1       -0.1689
     26 C          62.7434   78.4049   10.2990 C.3     1  UNL1        0.0276
     27 C          63.1166   79.8447   10.1050 C.3     1  UNL1        0.1556
@<TRIPOS>BOND
     1    26    27    1
     2    27    23    1
     3    23    24    2
     4    23    25    2
     5    23     1    1
     6     1     2    2
     7     2     3    1
     8     3     4    2
     9     4     5    1
    10     5     6    2
    11     6    10    1
    12    10    11   ar
    13    11    12   ar
    14    12    13   ar
    15    13    14   ar
    16    14    17    1
    17    17    18   ar
    18    18    19   ar
    19    19    20   ar
    20    20    21   ar
    21    21    22   ar
    22    14    15   ar
    23    15    16    1
    24     6     7    1
    25     7     8    2
    26     8     9    1
    27     9     1    1
    28     8     4    1
    29    15    10   ar
    30    22    17   ar
@<TRIPOS>MOLECULE
*****
 27 30 0 0 0
SMALL
GASTEIGER

@<TRIPOS>ATOM
      1 C          71.6556   72.4175   16.2350 C.2     1  UNL1        0.0919
      2 C          70.2577   72.9248   16.4314 C.2     1  UNL1        0.0183
      3 C          69.8994   74.3187   16.0086 C.2     1  UNL1        0.0511
      4 C          70.9389   75.2052   15.3895 C.2     1  UNL1        0.2322
      5 N          70.8811   76.6141   14.8780 N.2     1  UNL1       -0.0308
      6 C          72.2432   76.9776   14.3656 C.2     1  UNL1        0.3760
      7 N          73.1429   75.7933   14.5603 N.2     1  UNL1       -0.0347
      8 C          72.3368   74.6979   15.1931 C.2     1  UNL1        0.2191
      9 C          72.6951   73.3040   15.6159 C.3     1  UNL1        0.1226
     10 C          72.6364   78.2942   13.7640 C.ar    1  UNL1        0.0989
     11 C          73.2388   79.3631   14.6270 C.ar    1  UNL1        0.0085
     12 C          73.6321   80.6797   14.0255 C.ar    1  UNL1        0.0003
     13 C          73.4230   80.9274   12.5610 C.ar    1  UNL1        0.0008
     14 C          72.8207   79.8586   11.6980 C.ar    1  UNL1        0.0108
     15 C          72.4274   78.5420   12.2995 C.ar    1  UNL1        0.0651
     16 CL         71.8250   77.4732   11.4365 Cl      1  UNL1       -0.0820
     17 C          72.6116   80.1065   10.2334 C.ar    1  UNL1        0.0008
     18 C          73.1378   79.1290    9.2247 C.ar    1  UNL1        0.0000
     19 C          72.9287   79.3768    7.7602 C.ar    1  UNL1        0.0000
     20 C          72.1934   80.6022    7.3044 C.ar    1  UNL1        0.0000
     21 C          71.6672   81.5798    8.3131 C.ar    1  UNL1        0.0000
     22 C          71.8763   81.3319    9.7776 C.ar    1  UNL1        0.0000
     23 S          72.0139   71.0236   16.6578 S.O2    1  UNL1        0.0054
     24 O          71.0770   71.1364   17.8238 O.2     1  UNL1       -0.1689
     25 O          72.9508   70.9108   15.4918 O.2     1  UNL1       -0.1689
     26 C          71.7851   68.4529   16.3593 C.3     1  UNL1        0.0276
     27 C          72.3722   69.6297   17.0805 C.3     1  UNL1        0.1556
@<TRIPOS>BOND
     1    26    27    1
     2    27    23    1
     3    23    24    2
     4    23    25    2
     5    23     1    1
     6     1     2    2
     7     2     3    1
     8     3     4    2
     9     4     5    1
    10     5     6    2
    11     6    10    1
    12    10    11   ar
    13    11    12   ar
    14    12    13   ar
    15    13    14   ar
    16    14    17    1
    17    17    18   ar
    18    18    19   ar
    19    19    20   ar
    20    20    21   ar
    21    21    22   ar
    22    14    15   ar
    23    15    16    1
    24     6     7    1
    25     7     8    2
    26     8     9    1
    27     9     1    1
    28     8     4    1
    29    15    10   ar
    30    22    17   ar
