@<TRIPOS>MOLECULE
*****
 30 34 0 0 0
SMALL
GASTEIGER

@<TRIPOS>ATOM
      1 C          63.2309   89.8364   11.2606 C.ar    1  UNL1        0.0028
      2 C          63.5979   90.7661   10.1421 C.ar    1  UNL1        0.0002
      3 C          64.4272   91.9844   10.4211 C.ar    1  UNL1        0.0029
      4 C          64.8896   92.2730   11.8186 C.ar    1  UNL1        0.0349
      5 C          65.7190   93.4914   12.0975 C.ar    1  UNL1        0.1535
      6 N          66.1814   93.7800   13.4950 N.ar    1  UNL1       -0.1329
      7 N          65.8144   92.8503   14.6135 N.ar    1  UNL1       -0.1452
      8 C          64.9850   91.6320   14.3345 C.ar    1  UNL1        0.1222
      9 C          64.5226   91.3433   12.9370 C.ar    1  UNL1        0.0237
     10 C          63.6933   90.1251   12.6580 C.ar    1  UNL1        0.0018
     11 C          63.6064   87.3569   12.9072 C.3     1  UNL1        0.0311
     12 C          62.5892   87.3784   11.8049 C.ar    1  UNL1       -0.0188
     13 C          61.7599   86.1600   11.5259 C.ar    1  UNL1       -0.0040
     14 C          60.7427   86.1814   10.4236 C.ar    1  UNL1        0.0057
     15 C          60.5550   87.4212    9.6003 C.ar    1  UNL1        0.0715
     16 C          59.6372   87.7372    8.4568 C.ar    1  UNL1        0.1674
     17 N          58.6335   86.8035    7.8479 N.pl3   1  UNL1       -0.3400
     18 N          59.8993   89.1508    8.0290 N.ar    1  UNL1       -0.0623
     19 O          60.9791   89.7084    8.9082 O.2     1  UNL1       -0.3522
     20 C          61.3844   88.6395    9.8793 C.ar    1  UNL1        0.1777
     21 C          62.4015   88.6181   10.9816 C.ar    1  UNL1        0.0333
     22 H          58.5344   85.8895    8.2001 H       1  UNL1        0.1438
     23 H          58.0737   87.1047    7.0961 H       1  UNL1        0.1438
     24 N          66.0860   94.4211   10.9791 N.pl3   1  UNL1       -0.2884
     25 C          65.3814   95.7375   10.8363 C.3     1  UNL1        0.1242
     26 C          65.7484   96.6672    9.7178 C.3     1  UNL1        0.1636
     27 O          66.8200   96.2804    8.7421 O.3     1  UNL1       -0.3502
     28 C          67.5246   94.9639    8.8849 C.3     1  UNL1        0.1618
     29 C          67.1576   94.0342   10.0033 C.3     1  UNL1        0.1039
     30 C          67.8622   92.7178   10.1461 C.3     1  UNL1        0.0241
@<TRIPOS>BOND
     1    11    12    1
     2    12    13   ar
     3    13    14   ar
     4    14    15   ar
     5    15    16   ar
     6    16    17    1
     7    16    18   ar
     8    18    19   ar
     9    19    20   ar
    10    20    21   ar
    11    21     1    1
    12     1     2   ar
    13     2     3   ar
    14     3     4   ar
    15     4     5   ar
    16     5    24    1
    17    24    25    1
    18    25    26    1
    19    26    27    1
    20    27    28    1
    21    28    29    1
    22    29    30    1
    23     5     6   ar
    24     6     7   ar
    25     7     8   ar
    26     8     9   ar
    27     9    10   ar
    28    21    12   ar
    29    10     1   ar
    30    20    15   ar
    31     9     4   ar
    32    29    24    1
    33    17    22    1
    34    17    23    1
@<TRIPOS>MOLECULE
*****
 30 34 0 0 0
SMALL
GASTEIGER

@<TRIPOS>ATOM
      1 C          62.9567   85.6280   11.8412 C.ar    1  UNL1        0.0028
      2 C          63.7851   86.3144   12.8864 C.ar    1  UNL1        0.0002
      3 C          63.7272   87.8064   13.0287 C.ar    1  UNL1        0.0029
      4 C          62.8410   88.6122   12.1258 C.ar    1  UNL1        0.0349
      5 C          62.7832   90.1043   12.2681 C.ar    1  UNL1        0.1535
      6 N          61.8969   90.9101   11.3651 N.ar    1  UNL1       -0.1329
      7 N          61.0685   90.2236   10.3198 N.ar    1  UNL1       -0.1452
      8 C          61.1263   88.7316   10.1775 C.ar    1  UNL1        0.1222
      9 C          62.0126   87.9258   11.0805 C.ar    1  UNL1        0.0237
     10 C          62.0704   86.4337   10.9382 C.ar    1  UNL1        0.0018
     11 C          63.6782   84.3998    9.2009 C.3     1  UNL1        0.0311
     12 C          63.3752   83.5218   10.3788 C.ar    1  UNL1       -0.0188
     13 C          63.4330   82.0296   10.2364 C.ar    1  UNL1       -0.0040
     14 C          63.1301   81.1516   11.4143 C.ar    1  UNL1        0.0057
     15 C          62.7693   81.7657   12.7344 C.ar    1  UNL1        0.0715
     16 C          62.4227   81.1598   14.0621 C.ar    1  UNL1        0.1674
     17 N          62.3593   79.6936   14.3724 N.pl3   1  UNL1       -0.3400
     18 N          62.1507   82.2773   15.0249 N.ar    1  UNL1       -0.0623
     19 O          62.3292   83.5740   14.2923 O.2     1  UNL1       -0.3522
     20 C          62.7115   83.2578   12.8767 C.ar    1  UNL1        0.1777
     21 C          63.0145   84.1358   11.6989 C.ar    1  UNL1        0.0333
     22 H          62.5558   79.0327   13.6696 H       1  UNL1        0.1438
     23 H          62.1212   79.3922   15.2788 H       1  UNL1        0.1438
     24 N          63.6116   90.7907   13.3134 N.pl3   1  UNL1       -0.2884
     25 C          63.3370   90.5465   14.7676 C.3     1  UNL1        0.1242
     26 C          64.1655   91.2329   15.8129 C.3     1  UNL1        0.1636
     27 O          65.2685   92.1635   15.4039 O.3     1  UNL1       -0.3502
     28 C          65.5431   92.4076   13.9496 C.3     1  UNL1        0.1618
     29 C          64.7147   91.7213   12.9043 C.3     1  UNL1        0.1039
     30 C          64.9893   91.9655   11.4501 C.3     1  UNL1        0.0241
@<TRIPOS>BOND
     1    11    12    1
     2    12    13   ar
     3    13    14   ar
     4    14    15   ar
     5    15    16   ar
     6    16    17    1
     7    16    18   ar
     8    18    19   ar
     9    19    20   ar
    10    20    21   ar
    11    21     1    1
    12     1     2   ar
    13     2     3   ar
    14     3     4   ar
    15     4     5   ar
    16     5    24    1
    17    24    25    1
    18    25    26    1
    19    26    27    1
    20    27    28    1
    21    28    29    1
    22    29    30    1
    23     5     6   ar
    24     6     7   ar
    25     7     8   ar
    26     8     9   ar
    27     9    10   ar
    28    21    12   ar
    29    10     1   ar
    30    20    15   ar
    31     9     4   ar
    32    29    24    1
    33    17    22    1
    34    17    23    1
@<TRIPOS>MOLECULE
*****
 30 34 0 0 0
SMALL
GASTEIGER

@<TRIPOS>ATOM
      1 C          63.4196   86.2881   13.3511 C.ar    1  UNL1        0.0028
      2 C          64.1676   86.9506   14.4697 C.ar    1  UNL1        0.0002
      3 C          64.3970   88.4327   14.4441 C.ar    1  UNL1        0.0029
      4 C          63.8782   89.2523   13.2999 C.ar    1  UNL1        0.0349
      5 C          64.1076   90.7345   13.2744 C.ar    1  UNL1        0.1535
      6 N          63.5889   91.5541   12.1302 N.ar    1  UNL1       -0.1329
      7 N          62.8408   90.8914   11.0115 N.ar    1  UNL1       -0.1452
      8 C          62.6114   89.4093   11.0371 C.ar    1  UNL1        0.1222
      9 C          63.1302   88.5898   12.1813 C.ar    1  UNL1        0.0237
     10 C          62.9008   87.1077   12.2069 C.ar    1  UNL1        0.0018
     11 C          62.5866   84.9428   15.8999 C.3     1  UNL1        0.0311
     12 C          62.7737   84.1333   14.6510 C.ar    1  UNL1       -0.0188
     13 C          62.5443   82.6511   14.6766 C.ar    1  UNL1       -0.0040
     14 C          62.7315   81.8416   13.4277 C.ar    1  UNL1        0.0057
     15 C          63.1480   82.5143   12.1533 C.ar    1  UNL1        0.0715
     16 C          63.4085   81.9812   10.7756 C.ar    1  UNL1        0.1674
     17 N          63.2981   80.5472   10.3497 N.pl3   1  UNL1       -0.3400
     18 N          63.7989   83.1338    9.8987 N.ar    1  UNL1       -0.0623
     19 O          63.7796   84.3793   10.7344 O.2     1  UNL1       -0.3522
     20 C          63.3773   83.9964   12.1278 C.ar    1  UNL1        0.1777
     21 C          63.1902   84.8059   13.3767 C.ar    1  UNL1        0.0333
     22 H          63.0331   79.8590   11.0020 H       1  UNL1        0.1438
     23 H          63.4905   80.2942    9.4180 H       1  UNL1        0.1438
     24 N          64.8557   91.3970   14.3930 N.pl3   1  UNL1       -0.2884
     25 C          64.2287   91.5103   15.7509 C.3     1  UNL1        0.1242
     26 C          64.9768   92.1729   16.8696 C.3     1  UNL1        0.1636
     27 O          66.3519   92.7222   16.6303 O.3     1  UNL1       -0.3502
     28 C          66.9790   92.6089   15.2724 C.3     1  UNL1        0.1618
     29 C          66.2309   91.9463   14.1537 C.3     1  UNL1        0.1039
     30 C          66.8579   91.8331   12.7958 C.3     1  UNL1        0.0241
@<TRIPOS>BOND
     1    11    12    1
     2    12    13   ar
     3    13    14   ar
     4    14    15   ar
     5    15    16   ar
     6    16    17    1
     7    16    18   ar
     8    18    19   ar
     9    19    20   ar
    10    20    21   ar
    11    21     1    1
    12     1     2   ar
    13     2     3   ar
    14     3     4   ar
    15     4     5   ar
    16     5    24    1
    17    24    25    1
    18    25    26    1
    19    26    27    1
    20    27    28    1
    21    28    29    1
    22    29    30    1
    23     5     6   ar
    24     6     7   ar
    25     7     8   ar
    26     8     9   ar
    27     9    10   ar
    28    21    12   ar
    29    10     1   ar
    30    20    15   ar
    31     9     4   ar
    32    29    24    1
    33    17    22    1
    34    17    23    1
@<TRIPOS>MOLECULE
*****
 30 34 0 0 0
SMALL
GASTEIGER

@<TRIPOS>ATOM
      1 C          63.4526   89.8758   11.6057 C.ar    1  UNL1        0.0028
      2 C          63.7385   90.7680   10.4343 C.ar    1  UNL1        0.0002
      3 C          64.5255   92.0302   10.6274 C.ar    1  UNL1        0.0029
      4 C          65.0266   92.4003   11.9920 C.ar    1  UNL1        0.0349
      5 C          65.8136   93.6626   12.1851 C.ar    1  UNL1        0.1535
      6 N          66.3147   94.0326   13.5496 N.ar    1  UNL1       -0.1329
      7 N          66.0288   93.1404   14.7210 N.ar    1  UNL1       -0.1452
      8 C          65.2418   91.8782   14.5279 C.ar    1  UNL1        0.1222
      9 C          64.7407   91.5081   13.1634 C.ar    1  UNL1        0.0237
     10 C          63.9537   90.2459   12.9702 C.ar    1  UNL1        0.0018
     11 C          61.2399   89.7824    9.5820 C.3     1  UNL1        0.0311
     12 C          61.5593   88.5668   10.4008 C.ar    1  UNL1       -0.0188
     13 C          60.7722   87.3045   10.2077 C.ar    1  UNL1       -0.0040
     14 C          61.0915   86.0889   11.0264 C.ar    1  UNL1        0.0057
     15 C          62.1979   86.1356   12.0383 C.ar    1  UNL1        0.0715
     16 C          62.7376   85.1038   12.9839 C.ar    1  UNL1        0.1674
     17 N          62.2434   83.6948   13.1268 N.pl3   1  UNL1       -0.3400
     18 N          63.8580   85.7283   13.7613 N.ar    1  UNL1       -0.0623
     19 O          64.0109   87.1462   13.2962 O.2     1  UNL1       -0.3522
     20 C          62.9849   87.3979   12.2314 C.ar    1  UNL1        0.1777
     21 C          62.6656   88.6135   11.4126 C.ar    1  UNL1        0.0333
     22 H          61.4981   83.3755   12.5685 H       1  UNL1        0.1438
     23 H          62.6645   83.0893   13.7790 H       1  UNL1        0.1438
     24 N          66.0996   94.5547   11.0137 N.pl3   1  UNL1       -0.2884
     25 C          65.3820   95.8647   10.8758 C.3     1  UNL1        0.1242
     26 C          65.6679   96.7569    9.7044 C.3     1  UNL1        0.1636
     27 O          66.6714   96.3391    8.6708 O.3     1  UNL1       -0.3502
     28 C          67.3890   95.0291    8.8086 C.3     1  UNL1        0.1618
     29 C          67.1031   94.1369    9.9800 C.3     1  UNL1        0.1039
     30 C          67.8207   92.8269   10.1178 C.3     1  UNL1        0.0241
@<TRIPOS>BOND
     1    11    12    1
     2    12    13   ar
     3    13    14   ar
     4    14    15   ar
     5    15    16   ar
     6    16    17    1
     7    16    18   ar
     8    18    19   ar
     9    19    20   ar
    10    20    21   ar
    11    21     1    1
    12     1     2   ar
    13     2     3   ar
    14     3     4   ar
    15     4     5   ar
    16     5    24    1
    17    24    25    1
    18    25    26    1
    19    26    27    1
    20    27    28    1
    21    28    29    1
    22    29    30    1
    23     5     6   ar
    24     6     7   ar
    25     7     8   ar
    26     8     9   ar
    27     9    10   ar
    28    21    12   ar
    29    10     1   ar
    30    20    15   ar
    31     9     4   ar
    32    29    24    1
    33    17    22    1
    34    17    23    1
@<TRIPOS>MOLECULE
*****
 30 34 0 0 0
SMALL
GASTEIGER

@<TRIPOS>ATOM
      1 C          63.9695   88.9263   13.9672 C.ar    1  UNL1        0.0028
      2 C          64.2682   87.5659   14.5239 C.ar    1  UNL1        0.0002
      3 C          63.8352   86.3387   13.7780 C.ar    1  UNL1        0.0029
      4 C          63.1035   86.4719   12.4753 C.ar    1  UNL1        0.0349
      5 C          62.6705   85.2446   11.7294 C.ar    1  UNL1        0.1535
      6 N          61.9389   85.3779   10.4267 N.ar    1  UNL1       -0.1329
      7 N          61.6402   86.7384    9.8700 N.ar    1  UNL1       -0.1452
      8 C          62.0731   87.9656   10.6159 C.ar    1  UNL1        0.1222
      9 C          62.8048   87.8324   11.9186 C.ar    1  UNL1        0.0237
     10 C          63.2378   89.0596   12.6645 C.ar    1  UNL1        0.0018
     11 C          62.9402   89.4387   16.7381 C.3     1  UNL1        0.0311
     12 C          63.8878   90.4098   16.0985 C.ar    1  UNL1       -0.0188
     13 C          64.3208   91.6371   16.8445 C.ar    1  UNL1       -0.0040
     14 C          65.2684   92.6082   16.2049 C.ar    1  UNL1        0.0057
     15 C          65.7830   92.3520   14.8194 C.ar    1  UNL1        0.0715
     16 C          66.7197   93.1237   13.9379 C.ar    1  UNL1        0.1674
     17 N          67.3924   94.4184   14.2860 N.pl3   1  UNL1       -0.3400
     18 N          66.8657   92.3735   12.6473 N.ar    1  UNL1       -0.0623
     19 O          66.0192   91.1380   12.7311 O.2     1  UNL1       -0.3522
     20 C          65.3500   91.1247   14.0735 C.ar    1  UNL1        0.1777
     21 C          64.4024   90.1536   14.7131 C.ar    1  UNL1        0.0333
     22 H          67.2328   94.8358   15.1633 H       1  UNL1        0.1438
     23 H          67.9934   94.8509   13.6372 H       1  UNL1        0.1438
     24 N          62.9692   83.8842   12.2861 N.pl3   1  UNL1       -0.2884
     25 C          62.4218   83.4847   13.6242 C.3     1  UNL1        0.1242
     26 C          62.7205   82.1242   14.1809 C.3     1  UNL1        0.1636
     27 O          63.5667   81.1633   13.3995 O.3     1  UNL1       -0.3502
     28 C          64.1142   81.5629   12.0614 C.3     1  UNL1        0.1618
     29 C          63.8155   82.9233   11.5046 C.3     1  UNL1        0.1039
     30 C          64.3630   83.3228   10.1665 C.3     1  UNL1        0.0241
@<TRIPOS>BOND
     1    11    12    1
     2    12    13   ar
     3    13    14   ar
     4    14    15   ar
     5    15    16   ar
     6    16    17    1
     7    16    18   ar
     8    18    19   ar
     9    19    20   ar
    10    20    21   ar
    11    21     1    1
    12     1     2   ar
    13     2     3   ar
    14     3     4   ar
    15     4     5   ar
    16     5    24    1
    17    24    25    1
    18    25    26    1
    19    26    27    1
    20    27    28    1
    21    28    29    1
    22    29    30    1
    23     5     6   ar
    24     6     7   ar
    25     7     8   ar
    26     8     9   ar
    27     9    10   ar
    28    21    12   ar
    29    10     1   ar
    30    20    15   ar
    31     9     4   ar
    32    29    24    1
    33    17    22    1
    34    17    23    1
@<TRIPOS>MOLECULE
*****
 30 34 0 0 0
SMALL
GASTEIGER

@<TRIPOS>ATOM
      1 C          63.9477   89.2329   13.8601 C.ar    1  UNL1        0.0028
      2 C          63.1741   89.5328   12.6105 C.ar    1  UNL1        0.0002
      3 C          62.6553   88.4100   11.7620 C.ar    1  UNL1        0.0029
      4 C          62.9102   86.9872   12.1630 C.ar    1  UNL1        0.0349
      5 C          62.3914   85.8644   11.3143 C.ar    1  UNL1        0.1535
      6 N          62.6463   84.4416   11.7154 N.ar    1  UNL1       -0.1329
      7 N          63.4200   84.1417   12.9650 N.ar    1  UNL1       -0.1452
      8 C          63.9387   85.2646   13.8136 C.ar    1  UNL1        0.1222
      9 C          63.6838   86.6873   13.4126 C.ar    1  UNL1        0.0237
     10 C          64.2026   87.8102   14.2611 C.ar    1  UNL1        0.0018
     11 C          62.7659   89.7335   16.5717 C.3     1  UNL1        0.0311
     12 C          63.8756   90.6060   16.0645 C.ar    1  UNL1       -0.0188
     13 C          64.3944   91.7289   16.9132 C.ar    1  UNL1       -0.0040
     14 C          65.5041   92.6014   16.4060 C.ar    1  UNL1        0.0057
     15 C          66.0950   92.3511   15.0501 C.ar    1  UNL1        0.0715
     16 C          67.1891   93.0397   14.2894 C.ar    1  UNL1        0.1674
     17 N          67.9859   94.2186   14.7640 N.pl3   1  UNL1       -0.3400
     18 N          67.3465   92.3426   12.9707 N.ar    1  UNL1       -0.0623
     19 O          66.3497   91.2230   12.9164 O.2     1  UNL1       -0.3522
     20 C          65.5762   91.2283   14.2015 C.ar    1  UNL1        0.1777
     21 C          64.4665   90.3558   14.7088 C.ar    1  UNL1        0.0333
     22 H          67.8077   94.6085   15.6503 H       1  UNL1        0.1438
     23 H          68.6870   94.6025   14.1893 H       1  UNL1        0.1438
     24 N          61.6178   86.1643   10.0648 N.pl3   1  UNL1       -0.2884
     25 C          60.3639   86.9844   10.1376 C.3     1  UNL1        0.1242
     26 C          59.5903   87.2843    8.8879 C.3     1  UNL1        0.1636
     27 O          60.0705   86.7642    7.5655 O.3     1  UNL1       -0.3502
     28 C          61.3244   85.9441    7.4927 C.3     1  UNL1        0.1618
     29 C          62.0980   85.6441    8.7423 C.3     1  UNL1        0.1039
     30 C          63.3519   84.8241    8.6695 C.3     1  UNL1        0.0241
@<TRIPOS>BOND
     1    11    12    1
     2    12    13   ar
     3    13    14   ar
     4    14    15   ar
     5    15    16   ar
     6    16    17    1
     7    16    18   ar
     8    18    19   ar
     9    19    20   ar
    10    20    21   ar
    11    21     1    1
    12     1     2   ar
    13     2     3   ar
    14     3     4   ar
    15     4     5   ar
    16     5    24    1
    17    24    25    1
    18    25    26    1
    19    26    27    1
    20    27    28    1
    21    28    29    1
    22    29    30    1
    23     5     6   ar
    24     6     7   ar
    25     7     8   ar
    26     8     9   ar
    27     9    10   ar
    28    21    12   ar
    29    10     1   ar
    30    20    15   ar
    31     9     4   ar
    32    29    24    1
    33    17    22    1
    34    17    23    1
@<TRIPOS>MOLECULE
*****
 30 34 0 0 0
SMALL
GASTEIGER

@<TRIPOS>ATOM
      1 C          63.4406   86.2365   13.3954 C.ar    1  UNL1        0.0028
      2 C          64.3459   86.8693   14.4103 C.ar    1  UNL1        0.0002
      3 C          64.6187   88.3432   14.3563 C.ar    1  UNL1        0.0029
      4 C          63.9862   89.1844   13.2875 C.ar    1  UNL1        0.0349
      5 C          64.2591   90.6584   13.2336 C.ar    1  UNL1        0.1535
      6 N          63.6266   91.4996   12.1648 N.ar    1  UNL1       -0.1329
      7 N          62.7212   90.8668   11.1499 N.ar    1  UNL1       -0.1452
      8 C          62.4484   89.3928   11.2039 C.ar    1  UNL1        0.1222
      9 C          63.0809   88.5516   12.2727 C.ar    1  UNL1        0.0237
     10 C          62.8081   87.0777   12.3266 C.ar    1  UNL1        0.0018
     11 C          62.5235   84.9734   15.9574 C.3     1  UNL1        0.0311
     12 C          62.7092   84.1309   14.7303 C.ar    1  UNL1       -0.0188
     13 C          62.4363   82.6569   14.7843 C.ar    1  UNL1       -0.0040
     14 C          62.6220   81.8144   13.5572 C.ar    1  UNL1        0.0057
     15 C          63.0806   82.4460   12.2762 C.ar    1  UNL1        0.0715
     16 C          63.3500   81.8747   10.9156 C.ar    1  UNL1        0.1674
     17 N          63.2054   80.4352   10.5194 N.pl3   1  UNL1       -0.3400
     18 N          63.7893   82.9955   10.0209 N.ar    1  UNL1       -0.0623
     19 O          63.7914   84.2596   10.8285 O.2     1  UNL1       -0.3522
     20 C          63.3534   83.9200   12.2223 C.ar    1  UNL1        0.1777
     21 C          63.1677   84.7624   13.4494 C.ar    1  UNL1        0.0333
     22 H          62.9090   79.7698   11.1817 H       1  UNL1        0.1438
     23 H          63.4070   80.1559    9.5972 H       1  UNL1        0.1438
     24 N          65.1644   91.2912   14.2484 N.pl3   1  UNL1       -0.2884
     25 C          66.5562   91.6964   13.8628 C.3     1  UNL1        0.1242
     26 C          67.4615   92.3293   14.8777 C.3     1  UNL1        0.1636
     27 O          66.9750   92.5568   16.2782 O.3     1  UNL1       -0.3502
     28 C          65.5832   92.1516   16.6639 C.3     1  UNL1        0.1618
     29 C          64.6779   91.5188   15.6491 C.3     1  UNL1        0.1039
     30 C          63.2862   91.1136   16.0347 C.3     1  UNL1        0.0241
@<TRIPOS>BOND
     1    11    12    1
     2    12    13   ar
     3    13    14   ar
     4    14    15   ar
     5    15    16   ar
     6    16    17    1
     7    16    18   ar
     8    18    19   ar
     9    19    20   ar
    10    20    21   ar
    11    21     1    1
    12     1     2   ar
    13     2     3   ar
    14     3     4   ar
    15     4     5   ar
    16     5    24    1
    17    24    25    1
    18    25    26    1
    19    26    27    1
    20    27    28    1
    21    28    29    1
    22    29    30    1
    23     5     6   ar
    24     6     7   ar
    25     7     8   ar
    26     8     9   ar
    27     9    10   ar
    28    21    12   ar
    29    10     1   ar
    30    20    15   ar
    31     9     4   ar
    32    29    24    1
    33    17    22    1
    34    17    23    1
@<TRIPOS>MOLECULE
*****
 30 34 0 0 0
SMALL
GASTEIGER

@<TRIPOS>ATOM
      1 C          62.0054   87.2554   10.8122 C.ar    1  UNL1        0.0028
      2 C          62.2443   88.6886   11.1849 C.ar    1  UNL1        0.0002
      3 C          63.0449   89.0218   12.4088 C.ar    1  UNL1        0.0029
      4 C          63.6067   87.9218   13.2599 C.ar    1  UNL1        0.0349
      5 C          64.4074   88.2550   14.4839 C.ar    1  UNL1        0.1535
      6 N          64.9691   87.1551   15.3351 N.ar    1  UNL1       -0.1329
      7 N          64.7301   85.7218   14.9623 N.ar    1  UNL1       -0.1452
      8 C          63.9295   85.3887   13.7384 C.ar    1  UNL1        0.1222
      9 C          63.3677   86.4886   12.8873 C.ar    1  UNL1        0.0237
     10 C          62.5671   86.1555   11.6634 C.ar    1  UNL1        0.0018
     11 C          59.2826   88.4551   10.4283 C.3     1  UNL1        0.0311
     12 C          59.8433   87.5220    9.3964 C.ar    1  UNL1       -0.0188
     13 C          59.0426   87.1888    8.1724 C.ar    1  UNL1       -0.0040
     14 C          59.6034   86.2557    7.1405 C.ar    1  UNL1        0.0057
     15 C          60.9648   85.6559    7.3324 C.ar    1  UNL1        0.0715
     16 C          61.7729   84.7112    6.4930 C.ar    1  UNL1        0.1674
     17 N          61.3544   84.1208    5.1791 N.pl3   1  UNL1       -0.3400
     18 N          63.0728   84.4606    7.1980 N.ar    1  UNL1       -0.0623
     19 O          63.0683   85.2504    8.4732 O.2     1  UNL1       -0.3522
     20 C          61.7654   85.9891    8.5563 C.ar    1  UNL1        0.1777
     21 C          61.2047   86.9222    9.5883 C.ar    1  UNL1        0.0333
     22 H          60.4765   84.3469    4.7952 H       1  UNL1        0.1438
     23 H          61.9575   83.5072    4.7008 H       1  UNL1        0.1438
     24 N          64.6463   89.6882   14.8566 N.pl3   1  UNL1       -0.2884
     25 C          65.6666   90.4968   14.1116 C.3     1  UNL1        0.1242
     26 C          65.9055   91.9300   14.4843 C.3     1  UNL1        0.1636
     27 O          65.1241   92.5546   15.6020 O.3     1  UNL1       -0.3502
     28 C          64.1038   91.7460   16.3470 C.3     1  UNL1        0.1618
     29 C          63.8648   90.3128   15.9743 C.3     1  UNL1        0.1039
     30 C          62.8445   89.5042   16.7193 C.3     1  UNL1        0.0241
@<TRIPOS>BOND
     1    11    12    1
     2    12    13   ar
     3    13    14   ar
     4    14    15   ar
     5    15    16   ar
     6    16    17    1
     7    16    18   ar
     8    18    19   ar
     9    19    20   ar
    10    20    21   ar
    11    21     1    1
    12     1     2   ar
    13     2     3   ar
    14     3     4   ar
    15     4     5   ar
    16     5    24    1
    17    24    25    1
    18    25    26    1
    19    26    27    1
    20    27    28    1
    21    28    29    1
    22    29    30    1
    23     5     6   ar
    24     6     7   ar
    25     7     8   ar
    26     8     9   ar
    27     9    10   ar
    28    21    12   ar
    29    10     1   ar
    30    20    15   ar
    31     9     4   ar
    32    29    24    1
    33    17    22    1
    34    17    23    1
@<TRIPOS>MOLECULE
*****
 30 34 0 0 0
SMALL
GASTEIGER

@<TRIPOS>ATOM
      1 C          62.6619   89.9931   10.8195 C.ar    1  UNL1        0.0028
      2 C          63.1874   91.0775    9.9262 C.ar    1  UNL1        0.0002
      3 C          64.2562   92.0056   10.4223 C.ar    1  UNL1        0.0029
      4 C          64.7996   91.8494   11.8116 C.ar    1  UNL1        0.0349
      5 C          65.8684   92.7776   12.3077 C.ar    1  UNL1        0.1535
      6 N          66.4118   92.6214   13.6970 N.ar    1  UNL1       -0.1329
      7 N          65.8864   91.5370   14.5904 N.ar    1  UNL1       -0.1452
      8 C          64.8176   90.6088   14.0943 C.ar    1  UNL1        0.1222
      9 C          64.2742   90.7650   12.7050 C.ar    1  UNL1        0.0237
     10 C          63.2053   89.8369   12.2089 C.ar    1  UNL1        0.0018
     11 C          59.7837   90.5371   11.4674 C.3     1  UNL1        0.0311
     12 C          60.1540   89.3369   10.6474 C.ar    1  UNL1       -0.0188
     13 C          59.0851   88.4086   10.1514 C.ar    1  UNL1       -0.0040
     14 C          59.4554   87.2084    9.3315 C.ar    1  UNL1        0.0057
     15 C          60.8946   86.9364    9.0075 C.ar    1  UNL1        0.0715
     16 C          61.5579   85.8412    8.2262 C.ar    1  UNL1        0.1674
     17 N          60.8642   84.6958    7.5504 N.pl3   1  UNL1       -0.3400
     18 N          63.0366   86.0925    8.2393 N.ar    1  UNL1       -0.0623
     19 O          63.2872   87.3431    9.0287 O.2     1  UNL1       -0.3522
     20 C          61.9634   87.8646    9.5036 C.ar    1  UNL1        0.1777
     21 C          61.5931   89.0649   10.3235 C.ar    1  UNL1        0.0333
     22 H          59.8841   84.6163    7.5985 H       1  UNL1        0.1438
     23 H          61.3890   84.0234    7.0587 H       1  UNL1        0.1438
     24 N          66.3939   93.8620   11.4144 N.pl3   1  UNL1       -0.2884
     25 C          65.9532   95.2812   11.6186 C.3     1  UNL1        0.1242
     26 C          66.4787   96.3656   10.7252 C.3     1  UNL1        0.1636
     27 O          67.4447   96.0308    9.6277 O.3     1  UNL1       -0.3502
     28 C          67.8854   94.6116    9.4235 C.3     1  UNL1        0.1618
     29 C          67.3600   93.5272   10.3168 C.3     1  UNL1        0.1039
     30 C          67.8006   92.1080   10.1126 C.3     1  UNL1        0.0241
@<TRIPOS>BOND
     1    11    12    1
     2    12    13   ar
     3    13    14   ar
     4    14    15   ar
     5    15    16   ar
     6    16    17    1
     7    16    18   ar
     8    18    19   ar
     9    19    20   ar
    10    20    21   ar
    11    21     1    1
    12     1     2   ar
    13     2     3   ar
    14     3     4   ar
    15     4     5   ar
    16     5    24    1
    17    24    25    1
    18    25    26    1
    19    26    27    1
    20    27    28    1
    21    28    29    1
    22    29    30    1
    23     5     6   ar
    24     6     7   ar
    25     7     8   ar
    26     8     9   ar
    27     9    10   ar
    28    21    12   ar
    29    10     1   ar
    30    20    15   ar
    31     9     4   ar
    32    29    24    1
    33    17    22    1
    34    17    23    1
