@<TRIPOS>MOLECULE
*****
 31 34 0 0 0
SMALL
GASTEIGER

@<TRIPOS>ATOM
      1 C          64.1452   89.3251   13.8736 C.ar    1  UNL1       -0.0025
      2 C          64.5445   88.3038   14.8969 C.ar    1  UNL1       -0.0013
      3 C          64.2438   86.8526   14.6652 C.ar    1  UNL1        0.0185
      4 C          63.5436   86.4229   13.4102 C.ar    1  UNL1        0.1103
      5 C          63.1443   87.4443   12.3868 C.ar    1  UNL1        0.0185
      6 C          63.4451   88.8955   12.6185 C.ar    1  UNL1       -0.0013
      7 S          63.2429   84.9717   13.1785 S.O2    1  UNL1        0.0276
      8 O          64.4406   84.5927   13.9981 O.2     1  UNL1       -0.1642
      9 O          62.0451   85.3509   12.3589 O.2     1  UNL1       -0.1642
     10 C          62.9420   83.5206   12.9468 C.ar    1  UNL1        0.1148
     11 C          63.3565   82.8644   11.6632 C.ar    1  UNL1        0.0485
     12 C          63.0557   81.4133   11.4314 C.ar    1  UNL1        0.1437
     13 F          63.4702   80.7571   10.1478 F       1  UNL1       -0.2041
     14 C          62.3404   80.6183   12.4833 C.ar    1  UNL1        0.0593
     15 C          61.9259   81.2745   13.7669 C.ar    1  UNL1        0.1437
     16 F          61.2105   80.4795   14.8187 F       1  UNL1       -0.2041
     17 C          62.2267   82.7257   13.9987 C.ar    1  UNL1        0.0485
     18 C          64.4460   90.7764   14.1053 C.3     1  UNL1        0.1166
     19 O          67.3428   91.4243   13.6711 O.2     1  UNL1       -0.2701
     20 C          66.3036   91.9741   12.7397 C.2     1  UNL1        0.2475
     21 N          64.8552   91.6502   12.9568 N.am    1  UNL1       -0.2969
     22 H          64.1731   92.0110   12.3454 H       1  UNL1        0.1501
     23 C          66.7127   92.8479   11.5911 C.ar    1  UNL1        0.0710
     24 C          67.6870   92.3383   10.5709 C.ar    1  UNL1        0.0091
     25 C          68.0961   93.2121    9.4223 C.ar    1  UNL1        0.0376
     26 C          67.5308   94.5956    9.2942 C.ar    1  UNL1        0.1479
     27 N          67.7462   95.6776    8.2778 N.ar    1  UNL1       -0.2248
     28 C          66.9050   96.8559    8.6700 C.ar    1  UNL1        0.1195
     29 C          66.1698   96.5022    9.9287 C.ar    1  UNL1        0.1022
     30 N          66.5566   95.1053   10.3145 N.ar    1  UNL1       -0.2873
     31 C          66.1475   94.2314   11.4630 C.ar    1  UNL1        0.0860
@<TRIPOS>BOND
     1    19    20    2
     2    20    21   am
     3    21    18    1
     4    18     1    1
     5     1     2   ar
     6     2     3   ar
     7     3     4   ar
     8     4     7    1
     9     7     8    2
    10     7     9    2
    11     7    10    1
    12    10    11   ar
    13    11    12   ar
    14    12    13    1
    15    12    14   ar
    16    14    15   ar
    17    15    16    1
    18    15    17   ar
    19     4     5   ar
    20     5     6   ar
    21    20    23    1
    22    23    24   ar
    23    24    25   ar
    24    25    26   ar
    25    26    27   ar
    26    27    28   ar
    27    28    29   ar
    28    29    30   ar
    29    30    31   ar
    30     6     1   ar
    31    31    23   ar
    32    17    10   ar
    33    30    26   ar
    34    21    22    1
@<TRIPOS>MOLECULE
*****
 31 34 0 0 0
SMALL
GASTEIGER

@<TRIPOS>ATOM
      1 C          64.1115   89.3048   13.8529 C.ar    1  UNL1       -0.0025
      2 C          63.4068   88.8678   12.6030 C.ar    1  UNL1       -0.0013
      3 C          63.1193   87.4137   12.3734 C.ar    1  UNL1        0.0185
      4 C          63.5364   86.3965   13.3939 C.ar    1  UNL1        0.1103
      5 C          64.2411   86.8335   14.6439 C.ar    1  UNL1        0.0185
      6 C          64.5287   88.2877   14.8734 C.ar    1  UNL1       -0.0013
      7 S          63.2488   84.9423   13.1644 S.O2    1  UNL1        0.0276
      8 O          62.2833   85.3052   12.0752 O.2     1  UNL1       -0.1642
      9 O          64.2144   84.5795   14.2535 O.2     1  UNL1       -0.1642
     10 C          62.9613   83.4882   12.9349 C.ar    1  UNL1        0.1148
     11 C          62.3278   82.6686   14.0198 C.ar    1  UNL1        0.0485
     12 C          62.0403   81.2144   13.7905 C.ar    1  UNL1        0.1437
     13 F          61.4068   80.3949   14.8754 F       1  UNL1       -0.2041
     14 C          62.3862   80.5797   12.4761 C.ar    1  UNL1        0.0593
     15 C          63.0197   81.3992   11.3912 C.ar    1  UNL1        0.1437
     16 F          63.3656   80.7645   10.0768 F       1  UNL1       -0.2041
     17 C          63.3073   82.8535   11.6206 C.ar    1  UNL1        0.0485
     18 C          64.3991   90.7591   14.0824 C.3     1  UNL1        0.1166
     19 O          67.2902   91.4550   13.6865 O.2     1  UNL1       -0.2701
     20 C          66.2555   91.9806   12.7364 C.2     1  UNL1        0.2475
     21 N          64.8099   91.6327   12.9343 N.am    1  UNL1       -0.2969
     22 H          64.1307   91.9777   12.3107 H       1  UNL1        0.1501
     23 C          66.6662   92.8543   11.5883 C.ar    1  UNL1        0.0710
     24 C          67.6507   92.3487   10.5759 C.ar    1  UNL1        0.0091
     25 C          68.0614   93.2223    9.4277 C.ar    1  UNL1        0.0376
     26 C          67.4875   94.6016    9.2922 C.ar    1  UNL1        0.1479
     27 N          67.7022   95.6823    8.2744 N.ar    1  UNL1       -0.2248
     28 C          66.8503   96.8559    8.6579 C.ar    1  UNL1        0.1195
     29 C          66.1091   96.5004    9.9126 C.ar    1  UNL1        0.1022
     30 N          66.5030   95.1071   10.3046 N.ar    1  UNL1       -0.2873
     31 C          66.0923   94.2335   11.4527 C.ar    1  UNL1        0.0860
@<TRIPOS>BOND
     1    19    20    2
     2    20    21   am
     3    21    18    1
     4    18     1    1
     5     1     2   ar
     6     2     3   ar
     7     3     4   ar
     8     4     7    1
     9     7     8    2
    10     7     9    2
    11     7    10    1
    12    10    11   ar
    13    11    12   ar
    14    12    13    1
    15    12    14   ar
    16    14    15   ar
    17    15    16    1
    18    15    17   ar
    19     4     5   ar
    20     5     6   ar
    21    20    23    1
    22    23    24   ar
    23    24    25   ar
    24    25    26   ar
    25    26    27   ar
    26    27    28   ar
    27    28    29   ar
    28    29    30   ar
    29    30    31   ar
    30     6     1   ar
    31    31    23   ar
    32    17    10   ar
    33    30    26   ar
    34    21    22    1
@<TRIPOS>MOLECULE
*****
 31 34 0 0 0
SMALL
GASTEIGER

@<TRIPOS>ATOM
      1 C          59.8527   88.5332    7.8998 C.ar    1  UNL1       -0.0025
      2 C          60.6197   89.1041    9.0555 C.ar    1  UNL1       -0.0013
      3 C          61.3230   88.1894   10.0140 C.ar    1  UNL1        0.0185
      4 C          61.2592   86.7038    9.8168 C.ar    1  UNL1        0.1103
      5 C          60.4921   86.1329    8.6611 C.ar    1  UNL1        0.0185
      6 C          59.7888   87.0476    7.7025 C.ar    1  UNL1       -0.0013
      7 S          61.9625   85.7891   10.7753 S.O2    1  UNL1        0.0276
      8 O          61.2123   86.4086   11.9169 O.2     1  UNL1       -0.1642
      9 O          62.7128   85.1696    9.6335 O.2     1  UNL1       -0.1642
     10 C          62.6658   84.8744   11.7337 C.ar    1  UNL1        0.1148
     11 C          63.3782   85.4414   12.9258 C.ar    1  UNL1        0.0485
     12 C          64.0816   84.5267   13.8843 C.ar    1  UNL1        0.1437
     13 F          64.7939   85.0938   15.0763 F       1  UNL1       -0.2041
     14 C          64.0726   83.0451   13.6507 C.ar    1  UNL1        0.0593
     15 C          63.3602   82.4780   12.4586 C.ar    1  UNL1        0.1437
     16 F          63.3513   80.9964   12.2250 F       1  UNL1       -0.2041
     17 C          62.6568   83.3928   11.5001 C.ar    1  UNL1        0.0485
     18 C          59.1493   89.4480    6.9413 C.3     1  UNL1        0.1166
     19 O          57.8170   91.5405    5.2543 O.2     1  UNL1       -0.2701
     20 C          59.2622   91.2063    5.0320 C.2     1  UNL1        0.2475
     21 N          59.9284   90.1600    5.8755 N.am    1  UNL1       -0.2969
     22 H          60.8770   89.9407    5.7296 H       1  UNL1        0.1501
     23 C          60.0414   91.9184    3.9662 C.ar    1  UNL1        0.0710
     24 C          59.3507   92.8876    3.0533 C.ar    1  UNL1        0.0091
     25 C          60.1299   93.5997    1.9874 C.ar    1  UNL1        0.0376
     26 C          61.5997   93.3425    1.8347 C.ar    1  UNL1        0.1479
     27 N          62.6212   93.8917    0.8834 N.ar    1  UNL1       -0.2248
     28 C          63.9432   93.2619    1.2085 C.ar    1  UNL1        0.1195
     29 C          63.7388   92.3234    2.3607 C.ar    1  UNL1        0.1022
     30 N          62.2904   92.3732    2.7477 N.ar    1  UNL1       -0.2873
     31 C          61.5112   91.6612    3.8134 C.ar    1  UNL1        0.0860
@<TRIPOS>BOND
     1    19    20    2
     2    20    21   am
     3    21    18    1
     4    18     1    1
     5     1     2   ar
     6     2     3   ar
     7     3     4   ar
     8     4     7    1
     9     7     8    2
    10     7     9    2
    11     7    10    1
    12    10    11   ar
    13    11    12   ar
    14    12    13    1
    15    12    14   ar
    16    14    15   ar
    17    15    16    1
    18    15    17   ar
    19     4     5   ar
    20     5     6   ar
    21    20    23    1
    22    23    24   ar
    23    24    25   ar
    24    25    26   ar
    25    26    27   ar
    26    27    28   ar
    27    28    29   ar
    28    29    30   ar
    29    30    31   ar
    30     6     1   ar
    31    31    23   ar
    32    17    10   ar
    33    30    26   ar
    34    21    22    1
@<TRIPOS>MOLECULE
*****
 31 34 0 0 0
SMALL
GASTEIGER

@<TRIPOS>ATOM
      1 C          59.8591   88.5291    7.9167 C.ar    1  UNL1       -0.0025
      2 C          59.7828   87.0423    7.7337 C.ar    1  UNL1       -0.0013
      3 C          60.4870   86.1312    8.6950 C.ar    1  UNL1        0.0185
      4 C          61.2674   86.7069    9.8392 C.ar    1  UNL1        0.1103
      5 C          61.3437   88.1938   10.0223 C.ar    1  UNL1        0.0185
      6 C          60.6395   89.1049    9.0609 C.ar    1  UNL1       -0.0013
      7 S          61.9715   85.7958   10.8005 S.O2    1  UNL1        0.0276
      8 O          62.7153   85.1670    9.6597 O.2     1  UNL1       -0.1642
      9 O          61.2277   86.4246   11.9414 O.2     1  UNL1       -0.1642
     10 C          62.6756   84.8847   11.7618 C.ar    1  UNL1        0.1148
     11 C          62.6574   83.4014   11.5396 C.ar    1  UNL1        0.0485
     12 C          63.3614   82.4902   12.5009 C.ar    1  UNL1        0.1437
     13 F          63.3432   81.0069   12.2787 F       1  UNL1       -0.2041
     14 C          64.0837   83.0624   13.6845 C.ar    1  UNL1        0.0593
     15 C          64.1020   84.5457   13.9068 C.ar    1  UNL1        0.1437
     16 F          64.8243   85.1179   15.0903 F       1  UNL1       -0.2041
     17 C          63.3979   85.4569   12.9454 C.ar    1  UNL1        0.0485
     18 C          59.1549   89.4402    6.9553 C.3     1  UNL1        0.1166
     19 O          57.8154   91.5180    5.2559 O.2     1  UNL1       -0.2701
     20 C          59.2650   91.1963    5.0438 C.2     1  UNL1        0.2475
     21 N          59.9348   90.1574    5.8935 N.am    1  UNL1       -0.2969
     22 H          60.8863   89.9462    5.7543 H       1  UNL1        0.1501
     23 C          60.0450   91.9134    3.9819 C.ar    1  UNL1        0.0710
     24 C          59.3578   92.8973    3.0822 C.ar    1  UNL1        0.0091
     25 C          60.1378   93.6145    2.0203 C.ar    1  UNL1        0.0376
     26 C          61.6049   93.3476    1.8583 C.ar    1  UNL1        0.1479
     27 N          62.6264   93.8989    0.9083 N.ar    1  UNL1       -0.2248
     28 C          63.9449   93.2556    1.2209 C.ar    1  UNL1        0.1195
     29 C          63.7383   92.3068    2.3642 C.ar    1  UNL1        0.1022
     30 N          62.2921   92.3636    2.7581 N.ar    1  UNL1       -0.2873
     31 C          61.5121   91.6465    3.8199 C.ar    1  UNL1        0.0860
@<TRIPOS>BOND
     1    19    20    2
     2    20    21   am
     3    21    18    1
     4    18     1    1
     5     1     2   ar
     6     2     3   ar
     7     3     4   ar
     8     4     7    1
     9     7     8    2
    10     7     9    2
    11     7    10    1
    12    10    11   ar
    13    11    12   ar
    14    12    13    1
    15    12    14   ar
    16    14    15   ar
    17    15    16    1
    18    15    17   ar
    19     4     5   ar
    20     5     6   ar
    21    20    23    1
    22    23    24   ar
    23    24    25   ar
    24    25    26   ar
    25    26    27   ar
    26    27    28   ar
    27    28    29   ar
    28    29    30   ar
    29    30    31   ar
    30     6     1   ar
    31    31    23   ar
    32    17    10   ar
    33    30    26   ar
    34    21    22    1
@<TRIPOS>MOLECULE
*****
 31 34 0 0 0
SMALL
GASTEIGER

@<TRIPOS>ATOM
      1 C          63.8946   90.1144   15.2921 C.ar    1  UNL1       -0.0025
      2 C          65.1818   90.8507   15.5173 C.ar    1  UNL1       -0.0013
      3 C          65.8055   91.6304   14.3979 C.ar    1  UNL1        0.0185
      4 C          65.1419   91.6739   13.0534 C.ar    1  UNL1        0.1103
      5 C          63.8546   90.9375   12.8282 C.ar    1  UNL1        0.0185
      6 C          63.2309   90.1577   13.9477 C.ar    1  UNL1       -0.0013
      7 S          65.7656   92.4536   11.9340 S.O2    1  UNL1        0.0276
      8 O          66.8750   92.8799   12.8492 O.2     1  UNL1       -0.1642
      9 O          64.6562   92.0273   11.0189 O.2     1  UNL1       -0.1642
     10 C          66.3893   93.2333   10.8146 C.ar    1  UNL1        0.1148
     11 C          67.4259   92.5920    9.9405 C.ar    1  UNL1        0.0485
     12 C          68.0496   93.3716    8.8210 C.ar    1  UNL1        0.1437
     13 F          69.0862   92.7303    7.9469 F       1  UNL1       -0.2041
     14 C          67.6366   94.7927    8.5757 C.ar    1  UNL1        0.0593
     15 C          66.6000   95.4340    9.4498 C.ar    1  UNL1        0.1437
     16 F          66.1871   96.8550    9.2045 F       1  UNL1       -0.2041
     17 C          65.9763   94.6543   10.5693 C.ar    1  UNL1        0.0485
     18 C          63.2709   89.3346   16.4116 C.3     1  UNL1        0.1166
     19 O          64.9567   87.6656   14.5752 O.2     1  UNL1       -0.2701
     20 C          63.8092   87.0425   15.3133 C.2     1  UNL1        0.2475
     21 N          62.9663   87.8769   16.2315 N.am    1  UNL1       -0.2969
     22 H          62.2131   87.4679   16.7159 H       1  UNL1        0.1501
     23 C          63.5046   85.5848   15.1332 C.ar    1  UNL1        0.0710
     24 C          62.6112   84.8791   16.1098 C.ar    1  UNL1        0.0091
     25 C          62.3065   83.4214   15.9297 C.ar    1  UNL1        0.0376
     26 C          62.8953   82.6695   14.7730 C.ar    1  UNL1        0.1479
     27 N          62.7753   81.2381   14.3408 N.ar    1  UNL1       -0.2248
     28 C          63.5945   81.0593   13.0971 C.ar    1  UNL1        0.1195
     29 C          64.2209   82.3800   12.7606 C.ar    1  UNL1        0.1022
     30 N          63.7888   83.3752   13.7964 N.ar    1  UNL1       -0.2873
     31 C          64.0934   84.8329   13.9765 C.ar    1  UNL1        0.0860
@<TRIPOS>BOND
     1    19    20    2
     2    20    21   am
     3    21    18    1
     4    18     1    1
     5     1     2   ar
     6     2     3   ar
     7     3     4   ar
     8     4     7    1
     9     7     8    2
    10     7     9    2
    11     7    10    1
    12    10    11   ar
    13    11    12   ar
    14    12    13    1
    15    12    14   ar
    16    14    15   ar
    17    15    16    1
    18    15    17   ar
    19     4     5   ar
    20     5     6   ar
    21    20    23    1
    22    23    24   ar
    23    24    25   ar
    24    25    26   ar
    25    26    27   ar
    26    27    28   ar
    27    28    29   ar
    28    29    30   ar
    29    30    31   ar
    30     6     1   ar
    31    31    23   ar
    32    17    10   ar
    33    30    26   ar
    34    21    22    1
@<TRIPOS>MOLECULE
*****
 31 34 0 0 0
SMALL
GASTEIGER

@<TRIPOS>ATOM
      1 C          59.6764   91.0079    5.1006 C.ar    1  UNL1       -0.0025
      2 C          58.8146   91.9560    4.3210 C.ar    1  UNL1       -0.0013
      3 C          59.4100   92.7717    3.2119 C.ar    1  UNL1        0.0185
      4 C          60.8673   92.6392    2.8824 C.ar    1  UNL1        0.1103
      5 C          61.7293   91.6910    3.6621 C.ar    1  UNL1        0.0185
      6 C          61.1338   90.8752    4.7713 C.ar    1  UNL1       -0.0013
      7 S          61.4627   93.4549    1.7733 S.O2    1  UNL1        0.0276
      8 O          60.4070   94.5010    1.9760 O.2     1  UNL1       -0.1642
      9 O          62.5185   92.4087    1.5707 O.2     1  UNL1       -0.1642
     10 C          62.0582   94.2705    0.6642 C.ar    1  UNL1        0.1148
     11 C          63.5379   94.5129    0.6226 C.ar    1  UNL1        0.0485
     12 C          64.1335   95.3285   -0.4865 C.ar    1  UNL1        0.1437
     13 F          65.6132   95.5708   -0.5280 F       1  UNL1       -0.2041
     14 C          63.2493   95.9018   -1.5540 C.ar    1  UNL1        0.0593
     15 C          61.7696   95.6594   -1.5124 C.ar    1  UNL1        0.1437
     16 F          60.8854   96.2327   -2.5800 F       1  UNL1       -0.2041
     17 C          61.1740   94.8438   -0.4033 C.ar    1  UNL1        0.0485
     18 C          59.0810   90.1921    6.2098 C.3     1  UNL1        0.1166
     19 O          58.6683   87.4943    7.4553 O.2     1  UNL1       -0.2701
     20 C          59.7283   88.4121    7.9881 C.2     1  UNL1        0.2475
     21 N          59.9347   89.7610    7.3653 N.am    1  UNL1       -0.2969
     22 H          60.6305   90.3634    7.7150 H       1  UNL1        0.1501
     23 C          60.5821   87.9810    9.1437 C.ar    1  UNL1        0.0710
     24 C          60.6868   86.5272    9.4975 C.ar    1  UNL1        0.0091
     25 C          61.5406   86.0961   10.6531 C.ar    1  UNL1        0.0376
     26 C          62.2895   87.1190   11.4548 C.ar    1  UNL1        0.1479
     27 N          63.2020   86.9947   12.6389 N.ar    1  UNL1       -0.2248
     28 C          63.6611   88.3718   13.0168 C.ar    1  UNL1        0.1195
     29 C          63.0325   89.3472   12.0663 C.ar    1  UNL1        0.1022
     30 N          62.1848   88.5729   11.1009 N.ar    1  UNL1       -0.2873
     31 C          61.3310   89.0039    9.9454 C.ar    1  UNL1        0.0860
@<TRIPOS>BOND
     1    19    20    2
     2    20    21   am
     3    21    18    1
     4    18     1    1
     5     1     2   ar
     6     2     3   ar
     7     3     4   ar
     8     4     7    1
     9     7     8    2
    10     7     9    2
    11     7    10    1
    12    10    11   ar
    13    11    12   ar
    14    12    13    1
    15    12    14   ar
    16    14    15   ar
    17    15    16    1
    18    15    17   ar
    19     4     5   ar
    20     5     6   ar
    21    20    23    1
    22    23    24   ar
    23    24    25   ar
    24    25    26   ar
    25    26    27   ar
    26    27    28   ar
    27    28    29   ar
    28    29    30   ar
    29    30    31   ar
    30     6     1   ar
    31    31    23   ar
    32    17    10   ar
    33    30    26   ar
    34    21    22    1
@<TRIPOS>MOLECULE
*****
 31 34 0 0 0
SMALL
GASTEIGER

@<TRIPOS>ATOM
      1 C          59.6474   90.9905    5.1316 C.ar    1  UNL1       -0.0025
      2 C          58.7794   91.9332    4.3521 C.ar    1  UNL1       -0.0013
      3 C          59.3673   92.7452    3.2363 C.ar    1  UNL1        0.0185
      4 C          60.8232   92.6145    2.9001 C.ar    1  UNL1        0.1103
      5 C          61.6913   91.6718    3.6796 C.ar    1  UNL1        0.0185
      6 C          61.1034   90.8597    4.7955 C.ar    1  UNL1       -0.0013
      7 S          61.4111   93.4265    1.7843 S.O2    1  UNL1        0.0276
      8 O          62.7910   93.0733    2.2543 O.2     1  UNL1       -0.1642
      9 O          60.0310   93.7798    1.3143 O.2     1  UNL1       -0.1642
     10 C          61.9988   94.2386    0.6685 C.ar    1  UNL1        0.1148
     11 C          61.1063   94.8152   -0.3903 C.ar    1  UNL1        0.0485
     12 C          61.6940   95.6273   -1.5061 C.ar    1  UNL1        0.1437
     13 F          60.8014   96.2039   -2.5648 F       1  UNL1       -0.2041
     14 C          63.1742   95.8628   -1.5633 C.ar    1  UNL1        0.0593
     15 C          64.0669   95.2862   -0.5046 C.ar    1  UNL1        0.1437
     16 F          65.5471   95.5217   -0.5618 F       1  UNL1       -0.2041
     17 C          63.4791   94.4741    0.6113 C.ar    1  UNL1        0.0485
     18 C          59.0595   90.1784    6.2475 C.3     1  UNL1        0.1166
     19 O          58.6730   87.4798    7.4996 O.2     1  UNL1       -0.2701
     20 C          59.7260   88.4080    8.0283 C.2     1  UNL1        0.2475
     21 N          59.9192   89.7573    7.4022 N.am    1  UNL1       -0.2969
     22 H          60.6104   90.3665    7.7493 H       1  UNL1        0.1501
     23 C          60.5858   87.9869    9.1831 C.ar    1  UNL1        0.0710
     24 C          60.7092   86.5343    9.5358 C.ar    1  UNL1        0.0091
     25 C          61.5690   86.1133   10.6906 C.ar    1  UNL1        0.0376
     26 C          62.3054   87.1450   11.4927 C.ar    1  UNL1        0.1479
     27 N          63.2200   87.0314   12.6761 N.ar    1  UNL1       -0.2248
     28 C          63.6618   88.4139   13.0548 C.ar    1  UNL1        0.1195
     29 C          63.0203   89.3820   12.1054 C.ar    1  UNL1        0.1022
     30 N          62.1820   88.5977   11.1399 N.ar    1  UNL1       -0.2873
     31 C          61.3222   89.0187    9.9851 C.ar    1  UNL1        0.0860
@<TRIPOS>BOND
     1    19    20    2
     2    20    21   am
     3    21    18    1
     4    18     1    1
     5     1     2   ar
     6     2     3   ar
     7     3     4   ar
     8     4     7    1
     9     7     8    2
    10     7     9    2
    11     7    10    1
    12    10    11   ar
    13    11    12   ar
    14    12    13    1
    15    12    14   ar
    16    14    15   ar
    17    15    16    1
    18    15    17   ar
    19     4     5   ar
    20     5     6   ar
    21    20    23    1
    22    23    24   ar
    23    24    25   ar
    24    25    26   ar
    25    26    27   ar
    26    27    28   ar
    27    28    29   ar
    28    29    30   ar
    29    30    31   ar
    30     6     1   ar
    31    31    23   ar
    32    17    10   ar
    33    30    26   ar
    34    21    22    1
