@<TRIPOS>MOLECULE
*****
 34 37 0 0 0
SMALL
GASTEIGER

@<TRIPOS>ATOM
      1 C          59.6948   92.2039    3.2082 C.ar    1  UNL1        0.0479
      2 C          58.3792   91.9991    3.8990 C.ar    1  UNL1        0.0145
      3 C          58.3182   91.2237    5.1816 C.ar    1  UNL1        0.0013
      4 C          59.5729   90.6532    5.7735 C.ar    1  UNL1        0.0001
      5 C          60.8885   90.8581    5.0828 C.ar    1  UNL1        0.0013
      6 C          60.9494   91.6334    3.8001 C.ar    1  UNL1        0.0145
      7 N          59.8778   94.5298   -0.6397 N.3     1  UNL1       -0.1486
      8 C          59.4847   93.0824   -0.6562 C.3     1  UNL1        0.1171
      9 C          59.4237   92.3071    0.6264 C.3     1  UNL1        0.1099
     10 N          59.7558   92.9792    1.9256 N.pl3   1  UNL1       -0.3045
     11 C          60.1488   94.4267    1.9421 C.3     1  UNL1        0.1099
     12 C          60.2098   95.2020    0.6595 C.3     1  UNL1        0.1171
     13 O          58.4506   95.1841   -2.0663 O.2     1  UNL1       -0.1495
     14 S          59.9387   95.3052   -1.9223 S.O2    1  UNL1        0.1303
     15 O          61.4269   95.4263   -1.7784 O.2     1  UNL1       -0.1495
     16 C          59.9997   96.0805   -3.2050 C.3     1  UNL1        0.5359
     17 F          58.6957   95.4751   -3.6329 F       1  UNL1       -0.1493
     18 F          61.3037   96.6858   -2.7771 F       1  UNL1       -0.1493
     19 F          60.0607   96.8558   -4.4876 F       1  UNL1       -0.1493
     20 C          59.5119   89.8779    7.0561 C.2     1  UNL1        0.0000
     21 C          60.7533   89.6852    7.8757 C.2     1  UNL1        0.0001
     22 C          60.6923   88.9098    9.1584 C.ar    1  UNL1        0.0022
     23 C          59.7784   89.3554   10.2613 C.ar    1  UNL1        0.0296
     24 C          59.7174   88.5800   11.5440 C.ar    1  UNL1        0.1401
     25 F          58.8036   89.0255   12.6469 F       1  UNL1       -0.2042
     26 C          60.5703   87.3592   11.7236 C.ar    1  UNL1        0.0296
     27 C          61.4841   86.9137   10.6207 C.ar    1  UNL1        0.0023
     28 C          61.5451   87.6891    9.3381 C.ar    1  UNL1        0.0001
     29 C          62.3369   85.6930   10.8004 C.ar    1  UNL1        0.0032
     30 C          62.6728   85.2092   12.1800 C.ar    1  UNL1        0.0207
     31 C          63.5257   83.9883   12.3596 C.ar    1  UNL1        0.0989
     32 N          64.0426   83.2513   11.1598 N.ar    1  UNL1       -0.2423
     33 C          63.7067   83.7351    9.7803 C.ar    1  UNL1        0.0989
     34 C          62.8539   84.9559    9.6006 C.ar    1  UNL1        0.0207
@<TRIPOS>BOND
     1    13    14    2
     2    14    15    2
     3    14     7    1
     4     7     8    1
     5     8     9    1
     6     9    10    1
     7    10     1    1
     8     1     2   ar
     9     2     3   ar
    10     3     4   ar
    11     4    20    1
    12    20    21    2
    13    21    22    1
    14    22    23   ar
    15    23    24   ar
    16    24    25    1
    17    24    26   ar
    18    26    27   ar
    19    27    29    1
    20    29    30   ar
    21    30    31   ar
    22    31    32   ar
    23    32    33   ar
    24    33    34   ar
    25    27    28   ar
    26     4     5   ar
    27     5     6   ar
    28    10    11    1
    29    11    12    1
    30    14    16    1
    31    16    17    1
    32    16    18    1
    33    16    19    1
    34    12     7    1
    35     6     1   ar
    36    28    22   ar
    37    34    29   ar
@<TRIPOS>MOLECULE
*****
 34 37 0 0 0
SMALL
GASTEIGER

@<TRIPOS>ATOM
      1 C          71.5985   75.0389   14.1134 C.ar    1  UNL1        0.0479
      2 C          71.4998   76.3536   14.8288 C.ar    1  UNL1        0.0145
      3 C          71.5749   77.6362   14.0547 C.ar    1  UNL1        0.0013
      4 C          71.7489   77.6042   12.5652 C.ar    1  UNL1        0.0001
      5 C          71.8476   76.2895   11.8498 C.ar    1  UNL1        0.0013
      6 C          71.7724   75.0069   12.6239 C.ar    1  UNL1        0.0145
      7 N          71.3730   71.1911   16.4357 N.3     1  UNL1       -0.1486
      8 C          70.5695   72.3796   16.8736 C.3     1  UNL1        0.1171
      9 C          70.6446   73.6622   16.0995 C.3     1  UNL1        0.1099
     10 N          71.5233   73.7563   14.8875 N.pl3   1  UNL1       -0.3045
     11 C          72.3268   72.5678   14.4496 C.3     1  UNL1        0.1099
     12 C          72.2517   71.2852   15.2237 C.3     1  UNL1        0.1171
     13 O          72.3900   69.3310   16.3591 O.2     1  UNL1       -0.1495
     14 S          71.2978   69.9085   17.2098 S.O2    1  UNL1        0.1303
     15 O          70.2056   70.4859   18.0605 O.2     1  UNL1       -0.1495
     16 C          71.2226   68.6258   17.9839 C.3     1  UNL1        0.5359
     17 F          72.2335   68.0103   17.0623 F       1  UNL1       -0.1493
     18 F          70.2118   69.2413   18.9055 F       1  UNL1       -0.1493
     19 F          71.1475   67.3432   18.7580 F       1  UNL1       -0.1493
     20 C          71.8240   78.8868   11.7911 C.2     1  UNL1        0.0000
     21 C          72.4021   78.8947   10.4070 C.2     1  UNL1        0.0001
     22 C          72.4773   80.1773    9.6329 C.ar    1  UNL1        0.0022
     23 C          72.2844   81.4891   10.3344 C.ar    1  UNL1        0.0296
     24 C          72.3596   82.7717    9.5603 C.ar    1  UNL1        0.1401
     25 F          72.1667   84.0835   10.2617 F       1  UNL1       -0.2042
     26 C          72.6276   82.7425    8.0847 C.ar    1  UNL1        0.0296
     27 C          72.8205   81.4308    7.3832 C.ar    1  UNL1        0.0023
     28 C          72.7453   80.1482    8.1573 C.ar    1  UNL1        0.0001
     29 C          73.0885   81.4016    5.9077 C.ar    1  UNL1        0.0032
     30 C          73.2118   80.0883    5.1936 C.ar    1  UNL1        0.0207
     31 C          73.4798   80.0592    3.7180 C.ar    1  UNL1        0.0989
     32 N          73.6246   81.3434    2.9565 N.ar    1  UNL1       -0.2423
     33 C          73.5013   82.6568    3.6706 C.ar    1  UNL1        0.0989
     34 C          73.2332   82.6859    5.1462 C.ar    1  UNL1        0.0207
@<TRIPOS>BOND
     1    13    14    2
     2    14    15    2
     3    14     7    1
     4     7     8    1
     5     8     9    1
     6     9    10    1
     7    10     1    1
     8     1     2   ar
     9     2     3   ar
    10     3     4   ar
    11     4    20    1
    12    20    21    2
    13    21    22    1
    14    22    23   ar
    15    23    24   ar
    16    24    25    1
    17    24    26   ar
    18    26    27   ar
    19    27    29    1
    20    29    30   ar
    21    30    31   ar
    22    31    32   ar
    23    32    33   ar
    24    33    34   ar
    25    27    28   ar
    26     4     5   ar
    27     5     6   ar
    28    10    11    1
    29    11    12    1
    30    14    16    1
    31    16    17    1
    32    16    18    1
    33    16    19    1
    34    12     7    1
    35     6     1   ar
    36    28    22   ar
    37    34    29   ar
@<TRIPOS>MOLECULE
*****
 34 37 0 0 0
SMALL
GASTEIGER

@<TRIPOS>ATOM
      1 C          60.3873   93.0098    1.1678 C.ar    1  UNL1        0.0479
      2 C          59.1790   92.8574    2.0433 C.ar    1  UNL1        0.0145
      3 C          59.3071   92.2166    3.3935 C.ar    1  UNL1        0.0013
      4 C          60.6435   91.7281    3.8681 C.ar    1  UNL1        0.0001
      5 C          61.8518   91.8804    2.9925 C.ar    1  UNL1        0.0013
      6 C          61.7238   92.5213    1.6424 C.ar    1  UNL1        0.0145
      7 N          60.0031   94.9322   -2.8827 N.3     1  UNL1       -0.1486
      8 C          59.4030   93.5802   -2.6343 C.3     1  UNL1        0.1171
      9 C          59.5310   92.9393   -1.2841 C.3     1  UNL1        0.1099
     10 N          60.2593   93.6506   -0.1824 N.pl3   1  UNL1       -0.3045
     11 C          60.8594   95.0026   -0.4308 C.3     1  UNL1        0.1099
     12 C          60.7313   95.6434   -1.7810 C.3     1  UNL1        0.1171
     13 O          58.4613   95.0814   -4.3321 O.2     1  UNL1       -0.1495
     14 S          59.8750   95.5730   -4.2329 S.O2    1  UNL1        0.1303
     15 O          61.2887   96.0646   -4.1337 O.2     1  UNL1       -0.1495
     16 C          59.7469   96.2138   -5.5831 C.3     1  UNL1        0.5359
     17 F          58.2649   96.3342   -5.3854 F       1  UNL1       -0.1493
     18 F          61.2290   96.0935   -5.7807 F       1  UNL1       -0.1493
     19 F          59.6188   96.8547   -6.9332 F       1  UNL1       -0.1493
     20 C          60.7716   91.0873    5.2183 C.2     1  UNL1        0.0000
     21 C          59.7350   90.1091    5.6856 C.2     1  UNL1        0.0001
     22 C          59.8630   89.4682    7.0357 C.ar    1  UNL1        0.0022
     23 C          59.0231   88.2746    7.3821 C.ar    1  UNL1        0.0296
     24 C          59.1512   87.6338    8.7323 C.ar    1  UNL1        0.1401
     25 F          58.3113   86.4403    9.0787 F       1  UNL1       -0.2042
     26 C          60.1192   88.1866    9.7360 C.ar    1  UNL1        0.0296
     27 C          60.9590   89.3802    9.3896 C.ar    1  UNL1        0.0023
     28 C          60.8310   90.0210    8.0395 C.ar    1  UNL1        0.0001
     29 C          61.9270   89.9329   10.3934 C.ar    1  UNL1        0.0032
     30 C          61.9409   89.3986   11.7949 C.ar    1  UNL1        0.0207
     31 C          62.9089   89.9514   12.7987 C.ar    1  UNL1        0.0989
     32 N          63.8629   91.0384   12.4009 N.ar    1  UNL1       -0.2423
     33 C          63.8490   91.5726   10.9993 C.ar    1  UNL1        0.0989
     34 C          62.8811   91.0199    9.9956 C.ar    1  UNL1        0.0207
@<TRIPOS>BOND
     1    13    14    2
     2    14    15    2
     3    14     7    1
     4     7     8    1
     5     8     9    1
     6     9    10    1
     7    10     1    1
     8     1     2   ar
     9     2     3   ar
    10     3     4   ar
    11     4    20    1
    12    20    21    2
    13    21    22    1
    14    22    23   ar
    15    23    24   ar
    16    24    25    1
    17    24    26   ar
    18    26    27   ar
    19    27    29    1
    20    29    30   ar
    21    30    31   ar
    22    31    32   ar
    23    32    33   ar
    24    33    34   ar
    25    27    28   ar
    26     4     5   ar
    27     5     6   ar
    28    10    11    1
    29    11    12    1
    30    14    16    1
    31    16    17    1
    32    16    18    1
    33    16    19    1
    34    12     7    1
    35     6     1   ar
    36    28    22   ar
    37    34    29   ar
@<TRIPOS>MOLECULE
*****
 34 37 0 0 0
SMALL
GASTEIGER

@<TRIPOS>ATOM
      1 C          61.5250   86.2810   10.4632 C.ar    1  UNL1        0.0479
      2 C          61.5520   87.7185   10.8905 C.ar    1  UNL1        0.0145
      3 C          60.9614   88.7754   10.0051 C.ar    1  UNL1        0.0013
      4 C          60.3437   88.3948    8.6922 C.ar    1  UNL1        0.0001
      5 C          60.3167   86.9573    8.2648 C.ar    1  UNL1        0.0013
      6 C          60.9073   85.9004    9.1503 C.ar    1  UNL1        0.0145
      7 N          63.2968   83.1102   13.1196 N.3     1  UNL1       -0.1486
      8 C          62.8816   84.4292   13.7005 C.3     1  UNL1        0.1171
      9 C          62.2909   85.4862   12.8151 C.3     1  UNL1        0.1099
     10 N          62.1156   85.2240   11.3486 N.pl3   1  UNL1       -0.3045
     11 C          62.5309   83.9050   10.7676 C.3     1  UNL1        0.1099
     12 C          63.1215   82.8480   11.6531 C.3     1  UNL1        0.1171
     13 O          63.9147   83.0253   15.1471 O.2     1  UNL1       -0.1495
     14 S          63.8874   82.0532   14.0050 S.O2    1  UNL1        0.1303
     15 O          63.8602   81.0812   12.8629 O.2     1  UNL1       -0.1495
     16 C          64.4781   80.9963   14.8905 C.3     1  UNL1        0.5359
     17 F          65.0517   82.0606   15.7783 F       1  UNL1       -0.1493
     18 F          63.9044   79.9320   14.0027 F       1  UNL1       -0.1493
     19 F          65.0687   79.9393   15.7760 F       1  UNL1       -0.1493
     20 C          59.7531   89.4518    7.8068 C.2     1  UNL1        0.0000
     21 C          60.0810   89.4733    6.3432 C.2     1  UNL1        0.0001
     22 C          59.4904   90.5303    5.4578 C.ar    1  UNL1        0.0022
     23 C          58.0179   90.8121    5.5059 C.ar    1  UNL1        0.0296
     24 C          57.4273   91.8691    4.6204 C.ar    1  UNL1        0.1401
     25 F          55.9548   92.1509    4.6685 F       1  UNL1       -0.2042
     26 C          58.3092   92.6441    3.6868 C.ar    1  UNL1        0.0296
     27 C          59.7816   92.3623    3.6387 C.ar    1  UNL1        0.0023
     28 C          60.3723   91.3053    4.5242 C.ar    1  UNL1        0.0001
     29 C          60.6635   93.1373    2.7052 C.ar    1  UNL1        0.0032
     30 C          62.0199   92.6092    2.3429 C.ar    1  UNL1        0.0207
     31 C          62.9017   93.3843    1.4093 C.ar    1  UNL1        0.0989
     32 N          62.4272   94.6875    0.8380 N.ar    1  UNL1       -0.2423
     33 C          61.0708   95.2157    1.2003 C.ar    1  UNL1        0.0989
     34 C          60.1889   94.4406    2.1339 C.ar    1  UNL1        0.0207
@<TRIPOS>BOND
     1    13    14    2
     2    14    15    2
     3    14     7    1
     4     7     8    1
     5     8     9    1
     6     9    10    1
     7    10     1    1
     8     1     2   ar
     9     2     3   ar
    10     3     4   ar
    11     4    20    1
    12    20    21    2
    13    21    22    1
    14    22    23   ar
    15    23    24   ar
    16    24    25    1
    17    24    26   ar
    18    26    27   ar
    19    27    29    1
    20    29    30   ar
    21    30    31   ar
    22    31    32   ar
    23    32    33   ar
    24    33    34   ar
    25    27    28   ar
    26     4     5   ar
    27     5     6   ar
    28    10    11    1
    29    11    12    1
    30    14    16    1
    31    16    17    1
    32    16    18    1
    33    16    19    1
    34    12     7    1
    35     6     1   ar
    36    28    22   ar
    37    34    29   ar
@<TRIPOS>MOLECULE
*****
 34 37 0 0 0
SMALL
GASTEIGER

@<TRIPOS>ATOM
      1 C          59.7590   92.5296    2.5625 C.ar    1  UNL1        0.0479
      2 C          58.7719   92.1793    3.6363 C.ar    1  UNL1        0.0145
      3 C          59.2298   91.4595    4.8701 C.ar    1  UNL1        0.0013
      4 C          60.6747   91.0901    5.0301 C.ar    1  UNL1        0.0001
      5 C          61.6618   91.4404    3.9564 C.ar    1  UNL1        0.0013
      6 C          61.2039   92.1602    2.7226 C.ar    1  UNL1        0.0145
      7 N          58.3854   94.6890   -1.1389 N.3     1  UNL1       -0.1486
      8 C          58.1792   93.2085   -1.0143 C.3     1  UNL1        0.1171
      9 C          58.6371   92.4887    0.2196 C.3     1  UNL1        0.1099
     10 N          59.3011   93.2494    1.3287 N.pl3   1  UNL1       -0.3045
     11 C          59.5073   94.7299    1.2041 C.3     1  UNL1        0.1099
     12 C          59.0494   95.4497   -0.0297 C.3     1  UNL1        0.1171
     13 O          59.0157   94.7453   -3.1636 O.2     1  UNL1       -0.1495
     14 S          57.9275   95.4088   -2.3727 S.O2    1  UNL1        0.1303
     15 O          56.8393   96.0723   -1.5818 O.2     1  UNL1       -0.1495
     16 C          57.4696   96.1285   -3.6065 C.3     1  UNL1        0.5359
     17 F          58.5250   95.4258   -4.4081 F       1  UNL1       -0.1493
     18 F          56.4143   96.8313   -2.8049 F       1  UNL1       -0.1493
     19 F          57.0118   96.8483   -4.8403 F       1  UNL1       -0.1493
     20 C          61.1326   90.3703    6.2639 C.2     1  UNL1        0.0000
     21 C          60.1565   90.0693    7.3624 C.2     1  UNL1        0.0001
     22 C          60.6144   89.3495    8.5962 C.ar    1  UNL1        0.0022
     23 C          60.2407   87.9123    8.8082 C.ar    1  UNL1        0.0296
     24 C          60.6986   87.1925   10.0420 C.ar    1  UNL1        0.1401
     25 F          60.3250   85.7554   10.2541 F       1  UNL1       -0.2042
     26 C          61.5301   87.9100   11.0638 C.ar    1  UNL1        0.0296
     27 C          61.9037   89.3471   10.8518 C.ar    1  UNL1        0.0023
     28 C          61.4458   90.0669    9.6180 C.ar    1  UNL1        0.0001
     29 C          62.7351   90.0645   11.8735 C.ar    1  UNL1        0.0032
     30 C          63.7050   91.1241   11.4415 C.ar    1  UNL1        0.0207
     31 C          64.5364   91.8414   12.4633 C.ar    1  UNL1        0.0989
     32 N          64.3981   91.4992   13.9171 N.ar    1  UNL1       -0.2423
     33 C          63.4282   90.4396   14.3492 C.ar    1  UNL1        0.0989
     34 C          62.5968   89.7222   13.3275 C.ar    1  UNL1        0.0207
@<TRIPOS>BOND
     1    13    14    2
     2    14    15    2
     3    14     7    1
     4     7     8    1
     5     8     9    1
     6     9    10    1
     7    10     1    1
     8     1     2   ar
     9     2     3   ar
    10     3     4   ar
    11     4    20    1
    12    20    21    2
    13    21    22    1
    14    22    23   ar
    15    23    24   ar
    16    24    25    1
    17    24    26   ar
    18    26    27   ar
    19    27    29    1
    20    29    30   ar
    21    30    31   ar
    22    31    32   ar
    23    32    33   ar
    24    33    34   ar
    25    27    28   ar
    26     4     5   ar
    27     5     6   ar
    28    10    11    1
    29    11    12    1
    30    14    16    1
    31    16    17    1
    32    16    18    1
    33    16    19    1
    34    12     7    1
    35     6     1   ar
    36    28    22   ar
    37    34    29   ar
@<TRIPOS>MOLECULE
*****
 34 37 0 0 0
SMALL
GASTEIGER

@<TRIPOS>ATOM
      1 C          60.3694   89.7718    6.9112 C.ar    1  UNL1        0.0479
      2 C          61.1421   90.2994    8.0836 C.ar    1  UNL1        0.0145
      3 C          61.3760   89.4273    9.2814 C.ar    1  UNL1        0.0013
      4 C          60.8373   88.0276    9.3068 C.ar    1  UNL1        0.0001
      5 C          60.0646   87.5001    8.1344 C.ar    1  UNL1        0.0013
      6 C          59.8306   88.3722    6.9366 C.ar    1  UNL1        0.0145
      7 N          59.6676   92.3881    3.3178 N.3     1  UNL1       -0.1486
      8 C          58.5236   92.0293    4.2192 C.3     1  UNL1        0.1171
      9 C          58.7575   91.1572    5.4170 C.3     1  UNL1        0.1099
     10 N          60.1354   90.6439    5.7134 N.pl3   1  UNL1       -0.3045
     11 C          61.2794   91.0028    4.8120 C.3     1  UNL1        0.1099
     12 C          61.0455   91.8749    3.6142 C.3     1  UNL1        0.1171
     13 O          59.8846   94.4572    2.9035 O.2     1  UNL1       -0.1495
     14 S          59.4336   93.2602    2.1200 S.O2    1  UNL1        0.1303
     15 O          58.9827   92.0632    1.3366 O.2     1  UNL1       -0.1495
     16 C          59.1997   94.1323    0.9222 C.3     1  UNL1        0.5359
     17 F          58.2968   93.0869    0.3375 F       1  UNL1       -0.1493
     18 F          60.1026   95.1777    1.5070 F       1  UNL1       -0.1493
     19 F          58.9657   95.0044   -0.2756 F       1  UNL1       -0.1493
     20 C          61.0712   87.1555   10.5046 C.2     1  UNL1        0.0000
     21 C          62.4711   86.8580   10.9538 C.2     1  UNL1        0.0001
     22 C          62.7050   85.9859   12.1516 C.ar    1  UNL1        0.0022
     23 C          63.1886   86.5903   13.4364 C.ar    1  UNL1        0.0296
     24 C          63.4226   85.7182   14.6342 C.ar    1  UNL1        0.1401
     25 F          63.9062   86.3226   15.9190 F       1  UNL1       -0.2042
     26 C          63.1729   84.2417   14.5472 C.ar    1  UNL1        0.0296
     27 C          62.6893   83.6373   13.2623 C.ar    1  UNL1        0.0023
     28 C          62.4554   84.5094   12.0645 C.ar    1  UNL1        0.0001
     29 C          62.4397   82.1608   13.1753 C.ar    1  UNL1        0.0032
     30 C          63.0102   81.3696   12.0358 C.ar    1  UNL1        0.0207
     31 C          62.7605   79.8930   11.9488 C.ar    1  UNL1        0.0989
     32 N          61.9403   79.2078   13.0013 N.ar    1  UNL1       -0.2423
     33 C          61.3698   79.9990   14.1408 C.ar    1  UNL1        0.0989
     34 C          61.6195   81.4755   14.2278 C.ar    1  UNL1        0.0207
@<TRIPOS>BOND
     1    13    14    2
     2    14    15    2
     3    14     7    1
     4     7     8    1
     5     8     9    1
     6     9    10    1
     7    10     1    1
     8     1     2   ar
     9     2     3   ar
    10     3     4   ar
    11     4    20    1
    12    20    21    2
    13    21    22    1
    14    22    23   ar
    15    23    24   ar
    16    24    25    1
    17    24    26   ar
    18    26    27   ar
    19    27    29    1
    20    29    30   ar
    21    30    31   ar
    22    31    32   ar
    23    32    33   ar
    24    33    34   ar
    25    27    28   ar
    26     4     5   ar
    27     5     6   ar
    28    10    11    1
    29    11    12    1
    30    14    16    1
    31    16    17    1
    32    16    18    1
    33    16    19    1
    34    12     7    1
    35     6     1   ar
    36    28    22   ar
    37    34    29   ar
@<TRIPOS>MOLECULE
*****
 34 37 0 0 0
SMALL
GASTEIGER

@<TRIPOS>ATOM
      1 C          59.9012   90.4206    5.8641 C.ar    1  UNL1        0.0479
      2 C          58.4848   90.8306    5.5887 C.ar    1  UNL1        0.0145
      3 C          58.1804   91.7580    4.4497 C.ar    1  UNL1        0.0013
      4 C          59.2924   92.2754    3.5862 C.ar    1  UNL1        0.0001
      5 C          60.7087   91.8655    3.8616 C.ar    1  UNL1        0.0013
      6 C          61.0131   90.9381    5.0006 C.ar    1  UNL1        0.0145
      7 N          60.8143   87.6385    9.2811 N.3     1  UNL1       -0.1486
      8 C          61.1300   89.1001    9.3991 C.3     1  UNL1        0.1171
      9 C          60.8256   90.0275    8.2601 C.3     1  UNL1        0.1099
     10 N          60.2055   89.4933    7.0031 N.pl3   1  UNL1       -0.3045
     11 C          59.8899   88.0316    6.8851 C.3     1  UNL1        0.1099
     12 C          60.1943   87.1042    8.0241 C.3     1  UNL1        0.1171
     13 O          60.4159   87.6405   11.3647 O.2     1  UNL1       -0.1495
     14 S          61.1187   86.7111   10.4201 S.O2    1  UNL1        0.1303
     15 O          61.8216   85.7817    9.4755 O.2     1  UNL1       -0.1495
     16 C          61.4231   85.7837   11.5591 C.3     1  UNL1        0.5359
     17 F          60.7414   86.7248   12.5076 F       1  UNL1       -0.1493
     18 F          62.1049   84.8426   10.6107 F       1  UNL1       -0.1493
     19 F          61.7275   84.8563   12.6981 F       1  UNL1       -0.1493
     20 C          58.9880   93.2028    2.4472 C.2     1  UNL1        0.0000
     21 C          59.9497   93.3259    1.3027 C.2     1  UNL1        0.0001
     22 C          59.6453   94.2533    0.1637 C.ar    1  UNL1        0.0022
     23 C          60.7475   95.0481   -0.4714 C.ar    1  UNL1        0.0296
     24 C          60.4431   95.9755   -1.6104 C.ar    1  UNL1        0.1401
     25 F          61.5453   96.7703   -2.2455 F       1  UNL1       -0.2042
     26 C          59.0365   96.1080   -2.1143 C.ar    1  UNL1        0.0296
     27 C          57.9343   95.3132   -1.4792 C.ar    1  UNL1        0.0023
     28 C          58.2387   94.3858   -0.3402 C.ar    1  UNL1        0.0001
     29 C          56.5277   95.4457   -1.9831 C.ar    1  UNL1        0.0032
     30 C          55.4181   95.7792   -1.0305 C.ar    1  UNL1        0.0207
     31 C          54.0114   95.9118   -1.5345 C.ar    1  UNL1        0.0989
     32 N          53.7145   95.7108   -2.9910 N.ar    1  UNL1       -0.2423
     33 C          54.8242   95.3773   -3.9436 C.ar    1  UNL1        0.0989
     34 C          56.2308   95.2448   -3.4397 C.ar    1  UNL1        0.0207
@<TRIPOS>BOND
     1    13    14    2
     2    14    15    2
     3    14     7    1
     4     7     8    1
     5     8     9    1
     6     9    10    1
     7    10     1    1
     8     1     2   ar
     9     2     3   ar
    10     3     4   ar
    11     4    20    1
    12    20    21    2
    13    21    22    1
    14    22    23   ar
    15    23    24   ar
    16    24    25    1
    17    24    26   ar
    18    26    27   ar
    19    27    29    1
    20    29    30   ar
    21    30    31   ar
    22    31    32   ar
    23    32    33   ar
    24    33    34   ar
    25    27    28   ar
    26     4     5   ar
    27     5     6   ar
    28    10    11    1
    29    11    12    1
    30    14    16    1
    31    16    17    1
    32    16    18    1
    33    16    19    1
    34    12     7    1
    35     6     1   ar
    36    28    22   ar
    37    34    29   ar
