@<TRIPOS>MOLECULE
*****
 28 31 0 0 0
SMALL
GASTEIGER

@<TRIPOS>ATOM
      1 C          64.5244   90.1080   14.1838 C.ar    1  UNL1        0.0593
      2 C          65.8100   90.8395   14.4329 C.ar    1  UNL1        0.0152
      3 C          66.3714   91.7491   13.3805 C.ar    1  UNL1        0.0035
      4 C          65.6472   91.9271   12.0791 C.ar    1  UNL1        0.0277
      5 C          64.3616   91.1956   11.8300 C.ar    1  UNL1        0.1413
      6 F          63.6373   91.3737   10.5285 F       1  UNL1       -0.2041
      7 C          63.8002   90.2860   12.8823 C.ar    1  UNL1        0.0446
      8 C          66.2086   92.8367   11.0267 C.ar    1  UNL1        0.0068
      9 C          67.4134   92.4173   10.2378 C.ar    1  UNL1        0.0209
     10 C          67.9748   93.3269    9.1853 C.ar    1  UNL1        0.1021
     11 N          67.3313   94.6560    8.9219 N.ar    1  UNL1       -0.2092
     12 N          67.6585   95.7556    7.9556 N.ar    1  UNL1       -0.1409
     13 C          66.6559   96.8547    8.1474 C.ar    1  UNL1        0.2213
     14 N          65.7090   96.4343    9.2322 N.ar    1  UNL1       -0.2034
     15 C          66.1264   95.0754    9.7109 C.ar    1  UNL1        0.1656
     16 C          65.5651   94.1658   10.7633 C.ar    1  UNL1        0.0390
     17 C          63.3216   87.2023   16.4589 C.3     1  UNL1        0.2100
     18 C          63.9932   87.6989   15.2128 C.3     1  UNL1        0.1468
     19 N          63.9630   89.1984   15.2362 N.am    1  UNL1       -0.2212
     20 C          63.2729   89.6286   16.4966 C.2     1  UNL1        0.4088
     21 O          63.0230   91.0439   16.9259 O.2     1  UNL1       -0.2258
     22 O          62.8765   88.3950   17.2523 O.3     1  UNL1       -0.4345
     23 C          63.1291   85.7654   16.8439 C.3     1  UNL1        0.1352
     24 C          61.9871   82.9286   14.3144 C.3     1  UNL1        0.0946
     25 C          62.8643   83.8168   15.1460 C.2     1  UNL1        0.2231
     26 O          64.3541   83.6447   15.1113 O.2     1  UNL1       -0.2751
     27 N          62.2519   84.8772   16.0123 N.am    1  UNL1       -0.3011
     28 H          61.2742   84.9902   16.0352 H       1  UNL1        0.1495
@<TRIPOS>BOND
     1    24    25    1
     2    25    26    2
     3    25    27   am
     4    27    23    1
     5    17    23    1
     6    17    18    1
     7    18    19    1
     8    19     1    1
     9     1     2   ar
    10     2     3   ar
    11     3     4   ar
    12     4     8    1
    13     8     9   ar
    14     9    10   ar
    15    10    11   ar
    16    11    12   ar
    17    12    13   ar
    18    13    14   ar
    19    14    15   ar
    20    15    16   ar
    21     4     5   ar
    22     5     6    1
    23     5     7   ar
    24    19    20   am
    25    20    21    2
    26    20    22    1
    27    22    17    1
    28     7     1   ar
    29    16     8   ar
    30    15    11   ar
    31    27    28    1
@<TRIPOS>MOLECULE
*****
 28 31 0 0 0
SMALL
GASTEIGER

@<TRIPOS>ATOM
      1 C          64.6352   90.0643   14.1123 C.ar    1  UNL1        0.0593
      2 C          63.8731   90.4433   12.8771 C.ar    1  UNL1        0.0152
      3 C          64.3206   91.6109   12.0485 C.ar    1  UNL1        0.0035
      4 C          65.5299   92.3995   12.4551 C.ar    1  UNL1        0.0277
      5 C          66.2920   92.0206   13.6903 C.ar    1  UNL1        0.1413
      6 F          67.5014   92.8092   14.0969 F       1  UNL1       -0.2041
      7 C          65.8446   90.8530   14.5188 C.ar    1  UNL1        0.0446
      8 C          65.9773   93.5672   11.6265 C.ar    1  UNL1        0.0068
      9 C          66.0373   94.9378   12.2326 C.ar    1  UNL1        0.0209
     10 C          66.4848   96.1055   11.4040 C.ar    1  UNL1        0.1021
     11 N          66.8722   95.9023    9.9693 N.ar    1  UNL1       -0.2092
     12 N          67.3491   96.8554    8.9138 N.ar    1  UNL1       -0.1409
     13 C          67.5839   96.0737    7.6553 C.ar    1  UNL1        0.2213
     14 N          67.2521   94.6375    7.9330 N.ar    1  UNL1       -0.2034
     15 C          66.8122   94.5315    9.3631 C.ar    1  UNL1        0.1656
     16 C          66.3648   93.3640   10.1917 C.ar    1  UNL1        0.0390
     17 C          63.8474   86.6320   15.7444 C.3     1  UNL1        0.2100
     18 C          64.4881   87.4533   14.6649 C.3     1  UNL1        0.1468
     19 N          64.1878   88.8968   14.9409 N.am    1  UNL1       -0.2212
     20 C          63.3616   88.9677   16.1909 C.2     1  UNL1        0.4088
     21 O          62.8378   90.2186   16.8317 O.2     1  UNL1       -0.2258
     22 O          63.1513   87.5680   16.6875 O.3     1  UNL1       -0.4345
     23 C          63.8947   85.1373   15.8605 C.3     1  UNL1        0.1352
     24 C          64.2798   83.3571   12.3345 C.3     1  UNL1        0.0946
     25 C          63.7101   84.1785   13.4528 C.2     1  UNL1        0.2231
     26 O          62.3862   84.8627   13.2819 O.2     1  UNL1       -0.2751
     27 N          64.4644   84.3158   14.7421 N.am    1  UNL1       -0.3011
     28 H          65.3333   83.8668   14.8543 H       1  UNL1        0.1495
@<TRIPOS>BOND
     1    24    25    1
     2    25    26    2
     3    25    27   am
     4    27    23    1
     5    17    23    1
     6    17    18    1
     7    18    19    1
     8    19     1    1
     9     1     2   ar
    10     2     3   ar
    11     3     4   ar
    12     4     8    1
    13     8     9   ar
    14     9    10   ar
    15    10    11   ar
    16    11    12   ar
    17    12    13   ar
    18    13    14   ar
    19    14    15   ar
    20    15    16   ar
    21     4     5   ar
    22     5     6    1
    23     5     7   ar
    24    19    20   am
    25    20    21    2
    26    20    22    1
    27    22    17    1
    28     7     1   ar
    29    16     8   ar
    30    15    11   ar
    31    27    28    1
@<TRIPOS>MOLECULE
*****
 28 31 0 0 0
SMALL
GASTEIGER

@<TRIPOS>ATOM
      1 C          64.4009   88.7185   14.2887 C.ar    1  UNL1        0.0593
      2 C          64.8278   87.6366   15.2359 C.ar    1  UNL1        0.0152
      3 C          64.5228   86.2018   14.9221 C.ar    1  UNL1        0.0035
      4 C          63.7910   85.8490   13.6613 C.ar    1  UNL1        0.0277
      5 C          63.3642   86.9309   12.7140 C.ar    1  UNL1        0.1413
      6 F          62.6324   86.5781   11.4530 F       1  UNL1       -0.2041
      7 C          63.6691   88.3657   13.0277 C.ar    1  UNL1        0.0446
      8 C          63.4861   84.4142   13.3475 C.ar    1  UNL1        0.0068
      9 C          64.1732   83.7349   12.2003 C.ar    1  UNL1        0.0209
     10 C          63.8682   82.3001   11.8865 C.ar    1  UNL1        0.1021
     11 N          62.8760   81.5447   12.7201 N.ar    1  UNL1       -0.2092
     12 N          62.3761   80.1321   12.6509 N.ar    1  UNL1       -0.1409
     13 C          61.3799   79.9385   13.7555 C.ar    1  UNL1        0.2213
     14 N          61.2641   81.2313   14.5073 N.ar    1  UNL1       -0.2034
     15 C          62.1888   82.2240   13.8673 C.ar    1  UNL1        0.1656
     16 C          62.4938   83.6588   14.1810 C.ar    1  UNL1        0.0390
     17 C          65.6402   92.3909   14.4975 C.3     1  UNL1        0.2100
     18 C          65.6376   91.0446   13.8359 C.3     1  UNL1        0.1468
     19 N          64.7059   90.1533   14.6024 N.am    1  UNL1       -0.2212
     20 C          64.1327   90.9487   15.7377 C.2     1  UNL1        0.4088
     21 O          63.1539   90.4489   16.7586 O.2     1  UNL1       -0.2258
     22 O          64.7101   92.3315   15.6728 O.3     1  UNL1       -0.4345
     23 C          66.4336   93.5865   14.0604 C.3     1  UNL1        0.1352
     24 C          66.3084   94.4684   10.1931 C.3     1  UNL1        0.0946
     25 C          66.6472   93.7723   11.4778 C.2     1  UNL1        0.2231
     26 O          67.5384   92.5657   11.4648 O.2     1  UNL1       -0.2751
     27 N          66.0948   94.2826   12.7757 N.am    1  UNL1       -0.3011
     28 H          65.5098   95.0744   12.7843 H       1  UNL1        0.1495
@<TRIPOS>BOND
     1    24    25    1
     2    25    26    2
     3    25    27   am
     4    27    23    1
     5    17    23    1
     6    17    18    1
     7    18    19    1
     8    19     1    1
     9     1     2   ar
    10     2     3   ar
    11     3     4   ar
    12     4     8    1
    13     8     9   ar
    14     9    10   ar
    15    10    11   ar
    16    11    12   ar
    17    12    13   ar
    18    13    14   ar
    19    14    15   ar
    20    15    16   ar
    21     4     5   ar
    22     5     6    1
    23     5     7   ar
    24    19    20   am
    25    20    21    2
    26    20    22    1
    27    22    17    1
    28     7     1   ar
    29    16     8   ar
    30    15    11   ar
    31    27    28    1
@<TRIPOS>MOLECULE
*****
 28 31 0 0 0
SMALL
GASTEIGER

@<TRIPOS>ATOM
      1 C          62.2541   89.5916   11.0204 C.ar    1  UNL1        0.0593
      2 C          62.7372   90.9981   10.8248 C.ar    1  UNL1        0.0152
      3 C          63.7215   91.5938   11.7873 C.ar    1  UNL1        0.0035
      4 C          64.2226   90.7829   12.9454 C.ar    1  UNL1        0.0277
      5 C          63.7396   89.3764   13.1411 C.ar    1  UNL1        0.1413
      6 F          64.2407   88.5655   14.2993 F       1  UNL1       -0.2041
      7 C          62.7553   88.7807   12.1786 C.ar    1  UNL1        0.0446
      8 C          65.2069   91.3786   13.9080 C.ar    1  UNL1        0.0068
      9 C          64.7871   91.6886   15.3142 C.ar    1  UNL1        0.0209
     10 C          65.7714   92.2843   16.2768 C.ar    1  UNL1        0.1021
     11 N          67.1755   92.5699   15.8330 N.ar    1  UNL1       -0.2092
     12 N          68.3571   93.1495   16.5524 N.ar    1  UNL1       -0.1409
     13 C          69.5073   93.1977   15.5907 C.ar    1  UNL1        0.2213
     14 N          69.0364   92.6478   14.2770 N.ar    1  UNL1       -0.2034
     15 C          67.5953   92.2598   14.4267 C.ar    1  UNL1        0.1656
     16 C          66.6110   91.6642   13.4642 C.ar    1  UNL1        0.0390
     17 C          59.7816   88.7042    8.1631 C.3     1  UNL1        0.2100
     18 C          60.7339   89.6571    8.8228 C.3     1  UNL1        0.1468
     19 N          61.2699   88.9959   10.0579 N.am    1  UNL1       -0.2212
     20 C          60.6489   87.6344   10.1615 C.2     1  UNL1        0.4088
     21 O          60.9031   86.6295   11.2458 O.2     1  UNL1       -0.2258
     22 O          59.7291   87.4541    8.9905 O.3     1  UNL1       -0.4345
     23 C          59.0162   88.9571    6.8981 C.3     1  UNL1        0.1352
     24 C          58.8962   92.0168    4.3735 C.3     1  UNL1        0.0946
     25 C          58.4502   90.9398    5.3175 C.2     1  UNL1        0.2231
     26 O          56.9919   90.7685    5.6248 O.2     1  UNL1       -0.2751
     27 N          59.4622   90.0341    5.9541 N.am    1  UNL1       -0.3011
     28 H          60.4193   90.1465    5.7525 H       1  UNL1        0.1495
@<TRIPOS>BOND
     1    24    25    1
     2    25    26    2
     3    25    27   am
     4    27    23    1
     5    17    23    1
     6    17    18    1
     7    18    19    1
     8    19     1    1
     9     1     2   ar
    10     2     3   ar
    11     3     4   ar
    12     4     8    1
    13     8     9   ar
    14     9    10   ar
    15    10    11   ar
    16    11    12   ar
    17    12    13   ar
    18    13    14   ar
    19    14    15   ar
    20    15    16   ar
    21     4     5   ar
    22     5     6    1
    23     5     7   ar
    24    19    20   am
    25    20    21    2
    26    20    22    1
    27    22    17    1
    28     7     1   ar
    29    16     8   ar
    30    15    11   ar
    31    27    28    1
@<TRIPOS>MOLECULE
*****
 28 31 0 0 0
SMALL
GASTEIGER

@<TRIPOS>ATOM
      1 C          64.3214   88.7164   14.2005 C.ar    1  UNL1        0.0593
      2 C          64.7245   87.6307   15.1538 C.ar    1  UNL1        0.0152
      3 C          64.3900   86.2010   14.8470 C.ar    1  UNL1        0.0035
      4 C          63.6523   85.8570   13.5871 C.ar    1  UNL1        0.0277
      5 C          63.2492   86.9427   12.6338 C.ar    1  UNL1        0.1413
      6 F          62.5115   86.5988   11.3738 F       1  UNL1       -0.2041
      7 C          63.5837   88.3724   12.9406 C.ar    1  UNL1        0.0446
      8 C          63.3178   84.4273   13.2803 C.ar    1  UNL1        0.0068
      9 C          62.6318   83.5799   14.3104 C.ar    1  UNL1        0.0209
     10 C          62.2973   82.1501   14.0036 C.ar    1  UNL1        0.1021
     11 N          62.6487   81.5680   12.6666 N.ar    1  UNL1       -0.2092
     12 N          62.4460   80.2014   12.0824 N.ar    1  UNL1       -0.1409
     13 C          63.0067   80.2043   10.6911 C.ar    1  UNL1        0.2213
     14 N          63.5560   81.5726   10.4155 N.ar    1  UNL1       -0.2034
     15 C          63.3347   82.4155   11.6365 C.ar    1  UNL1        0.1656
     16 C          63.6692   83.8451   11.9433 C.ar    1  UNL1        0.0390
     17 C          65.6156   92.3714   14.3760 C.3     1  UNL1        0.2100
     18 C          65.5724   91.0273   13.7114 C.3     1  UNL1        0.1468
     19 N          64.6559   90.1461   14.5072 N.am    1  UNL1       -0.2212
     20 C          64.1326   90.9455   15.6636 C.2     1  UNL1        0.4088
     21 O          63.1829   90.4556   16.7162 O.2     1  UNL1       -0.2258
     22 O          64.7257   92.3208   15.5825 O.3     1  UNL1       -0.4345
     23 C          66.4093   93.5578   13.9150 C.3     1  UNL1        0.1352
     24 C          66.3952   94.3707   10.0305 C.3     1  UNL1        0.0946
     25 C          66.7188   93.7149   11.3402 C.2     1  UNL1        0.2231
     26 O          67.6754   92.5603   11.3848 O.2     1  UNL1       -0.2751
     27 N          66.0857   94.2136   12.6053 N.am    1  UNL1       -0.3011
     28 H          65.4579   94.9714   12.5761 H       1  UNL1        0.1495
@<TRIPOS>BOND
     1    24    25    1
     2    25    26    2
     3    25    27   am
     4    27    23    1
     5    17    23    1
     6    17    18    1
     7    18    19    1
     8    19     1    1
     9     1     2   ar
    10     2     3   ar
    11     3     4   ar
    12     4     8    1
    13     8     9   ar
    14     9    10   ar
    15    10    11   ar
    16    11    12   ar
    17    12    13   ar
    18    13    14   ar
    19    14    15   ar
    20    15    16   ar
    21     4     5   ar
    22     5     6    1
    23     5     7   ar
    24    19    20   am
    25    20    21    2
    26    20    22    1
    27    22    17    1
    28     7     1   ar
    29    16     8   ar
    30    15    11   ar
    31    27    28    1
@<TRIPOS>MOLECULE
*****
 28 31 0 0 0
SMALL
GASTEIGER

@<TRIPOS>ATOM
      1 C          63.9191   87.8353   14.0106 C.ar    1  UNL1        0.0593
      2 C          64.4207   86.7707   14.9407 C.ar    1  UNL1        0.0152
      3 C          64.1921   85.3238   14.6173 C.ar    1  UNL1        0.0035
      4 C          63.4620   84.9417   13.3640 C.ar    1  UNL1        0.0277
      5 C          62.9604   86.0063   12.4340 C.ar    1  UNL1        0.1413
      6 F          62.2303   85.6242   11.1806 F       1  UNL1       -0.2041
      7 C          63.1889   87.4531   12.7573 C.ar    1  UNL1        0.0446
      8 C          63.2335   83.4948   13.0407 C.ar    1  UNL1        0.0068
      9 C          62.8348   82.5379   14.1247 C.ar    1  UNL1        0.0209
     10 C          62.6062   81.0911   13.8014 C.ar    1  UNL1        0.1021
     11 N          62.7764   80.6013   12.3938 N.ar    1  UNL1       -0.2092
     12 N          62.6211   79.2422   11.7784 N.ar    1  UNL1       -0.1409
     13 C          62.9238   79.3592   10.3140 C.ar    1  UNL1        0.2213
     14 N          63.2662   80.7906   10.0243 N.ar    1  UNL1       -0.2034
     15 C          63.1751   81.5583   11.3097 C.ar    1  UNL1        0.1656
     16 C          63.4036   83.0050   11.6332 C.ar    1  UNL1        0.0390
     17 C          65.0258   91.5444   14.2986 C.3     1  UNL1        0.2100
     18 C          65.1339   90.1905   13.6618 C.3     1  UNL1        0.1468
     19 N          64.1476   89.2821   14.3339 N.am    1  UNL1       -0.2212
     20 C          63.4300   90.0744   15.3862 C.2     1  UNL1        0.4088
     21 O          62.3578   89.5591   16.2998 O.2     1  UNL1       -0.2258
     22 O          63.9727   91.4726   15.3643 O.3     1  UNL1       -0.4345
     23 C          65.8298   92.7571   13.9337 C.3     1  UNL1        0.1352
     24 C          68.9419   93.9498   16.0882 C.3     1  UNL1        0.0946
     25 C          68.1276   93.2473   15.0426 C.2     1  UNL1        0.2231
     26 O          68.7969   92.3324   14.0600 O.2     1  UNL1       -0.2751
     27 N          66.6440   93.4596   14.9794 N.am    1  UNL1       -0.3011
     28 H          66.2048   94.0600   15.6242 H       1  UNL1        0.1495
@<TRIPOS>BOND
     1    24    25    1
     2    25    26    2
     3    25    27   am
     4    27    23    1
     5    17    23    1
     6    17    18    1
     7    18    19    1
     8    19     1    1
     9     1     2   ar
    10     2     3   ar
    11     3     4   ar
    12     4     8    1
    13     8     9   ar
    14     9    10   ar
    15    10    11   ar
    16    11    12   ar
    17    12    13   ar
    18    13    14   ar
    19    14    15   ar
    20    15    16   ar
    21     4     5   ar
    22     5     6    1
    23     5     7   ar
    24    19    20   am
    25    20    21    2
    26    20    22    1
    27    22    17    1
    28     7     1   ar
    29    16     8   ar
    30    15    11   ar
    31    27    28    1
@<TRIPOS>MOLECULE
*****
 28 31 0 0 0
SMALL
GASTEIGER

@<TRIPOS>ATOM
      1 C          62.3999   89.2563   11.0872 C.ar    1  UNL1        0.0593
      2 C          62.8488   90.6622   10.8191 C.ar    1  UNL1        0.0152
      3 C          63.7977   91.3394   11.7632 C.ar    1  UNL1        0.0035
      4 C          64.2977   90.6106   12.9751 C.ar    1  UNL1        0.0277
      5 C          63.8488   89.2047   13.2431 C.ar    1  UNL1        0.1413
      6 F          64.3487   88.4758   14.4551 F       1  UNL1       -0.2041
      7 C          62.8999   88.5276   12.2991 C.ar    1  UNL1        0.0446
      8 C          65.2466   91.2877   13.9191 C.ar    1  UNL1        0.0068
      9 C          64.7942   91.6573   15.3006 C.ar    1  UNL1        0.0209
     10 C          65.7432   92.3344   16.2446 C.ar    1  UNL1        0.1021
     11 N          67.1445   92.6419   15.8070 N.ar    1  UNL1       -0.2092
     12 N          68.2952   93.2967   16.5119 N.ar    1  UNL1       -0.1409
     13 C          69.4589   93.3319   15.5660 C.ar    1  UNL1        0.2213
     14 N          69.0273   92.6988   14.2765 N.ar    1  UNL1       -0.2034
     15 C          67.5970   92.2723   14.4254 C.ar    1  UNL1        0.1656
     16 C          66.6480   91.5953   13.4814 C.ar    1  UNL1        0.0390
     17 C          60.4031   86.9117    8.7248 C.3     1  UNL1        0.2100
     18 C          61.5605   87.1691    9.6437 C.3     1  UNL1        0.1468
     19 N          61.4510   88.5792   10.1432 N.am    1  UNL1       -0.2212
     20 C          60.2260   89.1933    9.5331 C.2     1  UNL1        0.4088
     21 O          59.7348   90.5923    9.7597 O.2     1  UNL1       -0.2258
     22 O          59.5784   88.1627    8.6564 O.3     1  UNL1       -0.4345
     23 C          60.1202   85.6285    8.0013 C.3     1  UNL1        0.1352
     24 C          62.8033   84.5289    5.2917 C.3     1  UNL1        0.0946
     25 C          62.1575   84.8001    6.6181 C.2     1  UNL1        0.2231
     26 O          62.9033   84.5141    7.8879 O.2     1  UNL1       -0.2751
     27 N          60.7660   85.3572    6.6749 N.am    1  UNL1       -0.3011
     28 H          60.2765   85.5449    5.8416 H       1  UNL1        0.1495
@<TRIPOS>BOND
     1    24    25    1
     2    25    26    2
     3    25    27   am
     4    27    23    1
     5    17    23    1
     6    17    18    1
     7    18    19    1
     8    19     1    1
     9     1     2   ar
    10     2     3   ar
    11     3     4   ar
    12     4     8    1
    13     8     9   ar
    14     9    10   ar
    15    10    11   ar
    16    11    12   ar
    17    12    13   ar
    18    13    14   ar
    19    14    15   ar
    20    15    16   ar
    21     4     5   ar
    22     5     6    1
    23     5     7   ar
    24    19    20   am
    25    20    21    2
    26    20    22    1
    27    22    17    1
    28     7     1   ar
    29    16     8   ar
    30    15    11   ar
    31    27    28    1
@<TRIPOS>MOLECULE
*****
 28 31 0 0 0
SMALL
GASTEIGER

@<TRIPOS>ATOM
      1 C          63.3468   89.5503   13.1720 C.ar    1  UNL1        0.0593
      2 C          62.7407   90.2547   11.9945 C.ar    1  UNL1        0.0152
      3 C          62.2226   89.4617   10.8314 C.ar    1  UNL1        0.0035
      4 C          62.3107   87.9645   10.8457 C.ar    1  UNL1        0.0277
      5 C          62.9167   87.2600   12.0231 C.ar    1  UNL1        0.1413
      6 F          63.0048   85.7626   12.0375 F       1  UNL1       -0.2041
      7 C          63.4348   88.0529   13.1863 C.ar    1  UNL1        0.0446
      8 C          61.7926   87.1715    9.6825 C.ar    1  UNL1        0.0068
      9 C          60.3429   87.2520    9.3061 C.ar    1  UNL1        0.0209
     10 C          59.8249   86.4590    8.1429 C.ar    1  UNL1        0.1021
     11 N          60.7566   85.5855    7.3563 N.ar    1  UNL1       -0.2092
     12 N          60.5358   84.6954    6.1694 N.ar    1  UNL1       -0.1409
     13 C          61.8491   84.0647    5.8123 C.ar    1  UNL1        0.2213
     14 N          62.8816   84.5651    6.7785 N.ar    1  UNL1       -0.2034
     15 C          62.2064   85.5050    7.7328 C.ar    1  UNL1        0.1656
     16 C          62.7244   86.2980    8.8959 C.ar    1  UNL1        0.0390
     17 C          65.1894   91.8645   15.6849 C.3     1  UNL1        0.2100
     18 C          65.0226   91.2965   14.3066 C.3     1  UNL1        0.1468
     19 N          63.8648   90.3432   14.3351 N.am    1  UNL1       -0.2212
     20 C          63.3161   90.3220   15.7310 C.2     1  UNL1        0.4088
     21 O          62.1530   89.5042   16.2088 O.2     1  UNL1       -0.2258
     22 O          64.1347   91.2622   16.5652 O.3     1  UNL1       -0.4345
     23 C          66.2284   92.8600   16.1084 C.3     1  UNL1        0.1352
     24 C          69.8291   92.3644   14.5148 C.3     1  UNL1        0.0946
     25 C          68.3727   92.6967   14.6505 C.2     1  UNL1        0.2231
     26 O          67.6040   93.1980   13.4639 O.2     1  UNL1       -0.2751
     27 N          67.6848   92.5277   15.9727 N.am    1  UNL1       -0.3011
     28 H          68.1893   92.1987   16.7515 H       1  UNL1        0.1495
@<TRIPOS>BOND
     1    24    25    1
     2    25    26    2
     3    25    27   am
     4    27    23    1
     5    17    23    1
     6    17    18    1
     7    18    19    1
     8    19     1    1
     9     1     2   ar
    10     2     3   ar
    11     3     4   ar
    12     4     8    1
    13     8     9   ar
    14     9    10   ar
    15    10    11   ar
    16    11    12   ar
    17    12    13   ar
    18    13    14   ar
    19    14    15   ar
    20    15    16   ar
    21     4     5   ar
    22     5     6    1
    23     5     7   ar
    24    19    20   am
    25    20    21    2
    26    20    22    1
    27    22    17    1
    28     7     1   ar
    29    16     8   ar
    30    15    11   ar
    31    27    28    1
@<TRIPOS>MOLECULE
*****
 28 31 0 0 0
SMALL
GASTEIGER

@<TRIPOS>ATOM
      1 C          64.0248   88.2938   13.6960 C.ar    1  UNL1        0.0593
      2 C          64.5740   87.2500   14.6228 C.ar    1  UNL1        0.0152
      3 C          64.3404   85.7960   14.3375 C.ar    1  UNL1        0.0035
      4 C          63.5577   85.3858   13.1255 C.ar    1  UNL1        0.0277
      5 C          63.0086   86.4295   12.1987 C.ar    1  UNL1        0.1413
      6 F          62.2258   86.0194   10.9866 F       1  UNL1       -0.2041
      7 C          63.2421   87.8835   12.4839 C.ar    1  UNL1        0.0446
      8 C          63.3241   83.9317   12.8402 C.ar    1  UNL1        0.0068
      9 C          63.9272   83.3004   11.6207 C.ar    1  UNL1        0.0209
     10 C          63.6936   81.8464   11.3354 C.ar    1  UNL1        0.1021
     11 N          62.8569   81.0238   12.2698 N.ar    1  UNL1       -0.2092
     12 N          62.4555   79.5786   12.2493 N.ar    1  UNL1       -0.1409
     13 C          61.6043   79.3169   13.4564 C.ar    1  UNL1        0.2213
     14 N          61.4796   80.6003   14.2228 N.ar    1  UNL1       -0.2034
     15 C          62.2537   81.6552   13.4894 C.ar    1  UNL1        0.1656
     16 C          62.4873   83.1092   13.7747 C.ar    1  UNL1        0.0390
     17 C          64.8362   91.8135   15.1167 C.3     1  UNL1        0.2100
     18 C          64.7491   90.3244   15.2760 C.3     1  UNL1        0.1468
     19 N          64.2584   89.7477   13.9812 N.am    1  UNL1       -0.2212
     20 C          64.0423   90.8803   13.0217 C.2     1  UNL1        0.4088
     21 O          63.5547   90.7577   11.6085 O.2     1  UNL1       -0.2258
     22 O          64.3994   92.1569   13.7235 O.3     1  UNL1       -0.4345
     23 C          65.2820   92.7879   16.1665 C.3     1  UNL1        0.1352
     24 C          69.1542   93.5902   15.8324 C.3     1  UNL1        0.0946
     25 C          67.6982   93.4661   15.4942 C.2     1  UNL1        0.2231
     26 O          67.2022   93.8960   14.1453 O.2     1  UNL1       -0.2751
     27 N          66.7380   92.9120   16.5047 N.am    1  UNL1       -0.3011
     28 H          67.0635   92.6298   17.3899 H       1  UNL1        0.1495
@<TRIPOS>BOND
     1    24    25    1
     2    25    26    2
     3    25    27   am
     4    27    23    1
     5    17    23    1
     6    17    18    1
     7    18    19    1
     8    19     1    1
     9     1     2   ar
    10     2     3   ar
    11     3     4   ar
    12     4     8    1
    13     8     9   ar
    14     9    10   ar
    15    10    11   ar
    16    11    12   ar
    17    12    13   ar
    18    13    14   ar
    19    14    15   ar
    20    15    16   ar
    21     4     5   ar
    22     5     6    1
    23     5     7   ar
    24    19    20   am
    25    20    21    2
    26    20    22    1
    27    22    17    1
    28     7     1   ar
    29    16     8   ar
    30    15    11   ar
    31    27    28    1
