@<TRIPOS>MOLECULE
*****
 32 35 0 0 0
SMALL
GASTEIGER

@<TRIPOS>ATOM
      1 N          65.4083   92.2985   12.2093 N.pl3   1  UNL1       -0.2567
      2 C          64.1703   91.5803   11.7606 C.ar    1  UNL1        0.1408
      3 N          63.9765   91.6959   10.2777 N.ar    1  UNL1       -0.2290
      4 C          62.7936   91.0461    9.6230 C.ar    1  UNL1        0.0961
      5 C          61.8045   90.2809   10.4511 C.ar    1  UNL1        0.0010
      6 C          61.9983   90.1652   11.9341 C.ar    1  UNL1        0.0047
      7 C          63.1811   90.8149   12.5889 C.ar    1  UNL1        0.0855
      8 C          63.1857   90.5788   14.0702 C.2     1  UNL1        0.2556
      9 O          62.0446   89.7641   14.6029 O.2     1  UNL1       -0.2695
     10 N          64.1807   91.0498   15.0891 N.am    1  UNL1       -0.2508
     11 C          63.9029   90.6437   16.5061 C.3     1  UNL1        0.1204
     12 C          65.4168   91.8731   14.8785 C.ar    1  UNL1        0.0863
     13 C          66.1354   92.1234   16.1711 C.ar    1  UNL1        0.0194
     14 C          67.4003   92.9294   16.1821 C.ar    1  UNL1        0.0221
     15 C          67.9467   93.4852   14.9004 C.ar    1  UNL1        0.1004
     16 N          67.2281   93.2349   13.6078 N.ar    1  UNL1       -0.2275
     17 C          65.9631   92.4288   13.5968 C.ar    1  UNL1        0.1502
     18 C          65.9079   94.4048   10.7726 C.3     1  UNL1        0.0237
     19 C          66.1958   92.9760   11.1273 C.3     1  UNL1        0.0984
     20 C          60.6217   89.6311    9.7964 C.3     1  UNL1        0.0752
     21 C          60.4032   88.1540    9.9386 C.3     1  UNL1        0.2101
     22 O          61.3188   87.1901    9.2440 O.3     1  UNL1       -0.4754
     23 C          62.0320   86.1320   10.0327 C.ar    1  UNL1        0.1345
     24 C          61.9320   86.1171   11.5293 C.ar    1  UNL1        0.0366
     25 C          62.6452   85.0591   12.3180 C.ar    1  UNL1        0.0042
     26 C          63.4581   84.0160   11.6102 C.ar    1  UNL1        0.0139
     27 C          63.5580   84.0310   10.1136 C.ar    1  UNL1       -0.0001
     28 C          62.8449   85.0890    9.3248 C.ar    1  UNL1        0.0121
     29 C          62.9448   85.1040    7.8282 C.3     1  UNL1        0.0342
     30 C          64.1712   82.9580   12.3989 C.2     1  UNL1        0.0729
     31 O          64.1241   82.9804   13.8980 O.co2   1  UNL1       -0.5446
     32 O          64.9315   81.8776   11.6885 O.co2   1  UNL1       -0.5446
@<TRIPOS>UNITY_ATOM_ATTR
31 1
charge -1
@<TRIPOS>BOND
     1    18    19    1
     2    19     1    1
     3     1     2    1
     4     2     3   ar
     5     3     4   ar
     6     4     5   ar
     7     5    20    1
     8    20    21    1
     9    21    22    1
    10    22    23    1
    11    23    24   ar
    12    24    25   ar
    13    25    26   ar
    14    26    30    1
    15    30    31   ar
    16    30    32   ar
    17    26    27   ar
    18    27    28   ar
    19    28    29    1
    20     5     6   ar
    21     6     7   ar
    22     7     8    1
    23     8     9    2
    24     8    10   am
    25    10    11    1
    26    10    12    1
    27    12    13   ar
    28    13    14   ar
    29    14    15   ar
    30    15    16   ar
    31    16    17   ar
    32    17     1    1
    33     7     2   ar
    34    17    12   ar
    35    28    23   ar
@<TRIPOS>MOLECULE
*****
 32 35 0 0 0
SMALL
GASTEIGER

@<TRIPOS>ATOM
      1 N          64.0306   90.9179   14.1917 N.pl3   1  UNL1       -0.2567
      2 C          63.3322   90.6586   12.8897 C.ar    1  UNL1        0.1408
      3 N          62.2001   89.6892   13.0586 N.ar    1  UNL1       -0.2290
      4 C          61.3691   89.2928   11.8744 C.ar    1  UNL1        0.0961
      5 C          61.6703   89.8658   10.5213 C.ar    1  UNL1        0.0010
      6 C          62.8024   90.8353   10.3524 C.ar    1  UNL1        0.0047
      7 C          63.6334   91.2316   11.5366 C.ar    1  UNL1        0.0855
      8 C          64.7072   92.2055   11.1512 C.2     1  UNL1        0.2556
      9 O          64.7486   92.5887    9.7016 O.2     1  UNL1       -0.2695
     10 N          65.7452   92.8467   12.0239 N.am    1  UNL1       -0.2508
     11 C          66.6873   93.7864   11.3314 C.3     1  UNL1        0.1204
     12 C          65.9656   92.6726   13.4973 C.ar    1  UNL1        0.0863
     13 C          67.1183   93.5018   13.9808 C.ar    1  UNL1        0.0194
     14 C          67.5079   93.4725   15.4289 C.ar    1  UNL1        0.0221
     15 C          66.7448   92.6141   16.3937 C.ar    1  UNL1        0.1004
     16 N          65.5922   91.7849   15.9103 N.ar    1  UNL1       -0.2275
     17 C          65.2025   91.8142   14.4621 C.ar    1  UNL1        0.1502
     18 C          63.8526   88.7475   15.6088 C.3     1  UNL1        0.0237
     19 C          63.4848   90.1837   15.3804 C.3     1  UNL1        0.0984
     20 C          60.8393   89.4694    9.3371 C.3     1  UNL1        0.0752
     21 C          60.1590   88.1328    9.3118 C.3     1  UNL1        0.2101
     22 O          60.8523   86.9498    8.7037 O.3     1  UNL1       -0.4754
     23 C          61.6655   86.0315    9.5671 C.ar    1  UNL1        0.1345
     24 C          61.4947   86.0563   11.0571 C.ar    1  UNL1        0.0366
     25 C          62.3079   85.1380   11.9206 C.ar    1  UNL1        0.0042
     26 C          63.2918   84.1950   11.2940 C.ar    1  UNL1        0.0139
     27 C          63.4625   84.1702    9.8040 C.ar    1  UNL1       -0.0001
     28 C          62.6493   85.0884    8.9405 C.ar    1  UNL1        0.0121
     29 C          62.8200   85.0637    7.4504 C.3     1  UNL1        0.0342
     30 C          64.1050   83.2767   12.1574 C.2     1  UNL1        0.0729
     31 O          64.9333   82.1950   11.5299 O.co2   1  UNL1       -0.5446
     32 O          64.0898   83.4401   13.6484 O.co2   1  UNL1       -0.5446
@<TRIPOS>UNITY_ATOM_ATTR
31 1
charge -1
@<TRIPOS>BOND
     1    18    19    1
     2    19     1    1
     3     1     2    1
     4     2     3   ar
     5     3     4   ar
     6     4     5   ar
     7     5    20    1
     8    20    21    1
     9    21    22    1
    10    22    23    1
    11    23    24   ar
    12    24    25   ar
    13    25    26   ar
    14    26    30    1
    15    30    31   ar
    16    30    32   ar
    17    26    27   ar
    18    27    28   ar
    19    28    29    1
    20     5     6   ar
    21     6     7   ar
    22     7     8    1
    23     8     9    2
    24     8    10   am
    25    10    11    1
    26    10    12    1
    27    12    13   ar
    28    13    14   ar
    29    14    15   ar
    30    15    16   ar
    31    16    17   ar
    32    17     1    1
    33     7     2   ar
    34    17    12   ar
    35    28    23   ar
@<TRIPOS>MOLECULE
*****
 32 35 0 0 0
SMALL
GASTEIGER

@<TRIPOS>ATOM
      1 N          62.6116   85.2102   10.8749 N.pl3   1  UNL1       -0.2567
      2 C          62.6785   86.6905   11.1075 C.ar    1  UNL1        0.1408
      3 N          62.1898   87.4556    9.9134 N.ar    1  UNL1       -0.2290
      4 C          62.1739   88.9553    9.9386 C.ar    1  UNL1        0.0961
      5 C          62.6465   89.6899   11.1579 C.ar    1  UNL1        0.0010
      6 C          63.1352   88.9249   12.3520 C.ar    1  UNL1        0.0047
      7 C          63.1512   87.4252   12.3268 C.ar    1  UNL1        0.0855
      8 C          63.6737   86.8610   13.6148 C.2     1  UNL1        0.2556
      9 O          64.0697   87.8682   14.6533 O.2     1  UNL1       -0.2695
     10 N          63.8525   85.4228   14.0014 N.am    1  UNL1       -0.2508
     11 C          64.4037   85.1820   15.3755 C.3     1  UNL1        0.1204
     12 C          63.5531   84.1935   13.1956 C.ar    1  UNL1        0.0863
     13 C          63.8789   82.9446   13.9598 C.ar    1  UNL1        0.0194
     14 C          63.6525   81.6010   13.3325 C.ar    1  UNL1        0.0221
     15 C          63.1002   81.5064   11.9411 C.ar    1  UNL1        0.1004
     16 N          62.7744   82.7553   11.1769 N.ar    1  UNL1       -0.2275
     17 C          63.0008   84.0989   11.8042 C.ar    1  UNL1        0.1502
     18 C          62.9711   84.8520    8.3268 C.3     1  UNL1        0.0237
     19 C          62.0859   84.7848    9.5360 C.3     1  UNL1        0.0984
     20 C          62.6306   91.1896   11.1831 C.3     1  UNL1        0.0752
     21 C          63.4351   91.9652   10.1825 C.3     1  UNL1        0.2101
     22 O          64.9143   92.1264   10.3725 O.3     1  UNL1       -0.4754
     23 C          65.4705   92.3894   11.7406 C.ar    1  UNL1        0.1345
     24 C          65.4669   91.3017   12.7735 C.ar    1  UNL1        0.0366
     25 C          66.0231   91.5647   14.1415 C.ar    1  UNL1        0.0042
     26 C          66.5827   92.9155   14.4766 C.ar    1  UNL1        0.0139
     27 C          66.5862   94.0031   13.4438 C.ar    1  UNL1       -0.0001
     28 C          66.0301   93.7402   12.0757 C.ar    1  UNL1        0.0121
     29 C          66.0336   94.8279   11.0427 C.3     1  UNL1        0.0342
     30 C          67.1389   93.1785   15.8447 C.2     1  UNL1        0.0729
     31 O          66.3526   92.7897   17.0615 O.co2   1  UNL1       -0.5446
     32 O          68.4813   93.8304   15.9960 O.co2   1  UNL1       -0.5446
@<TRIPOS>UNITY_ATOM_ATTR
31 1
charge -1
@<TRIPOS>BOND
     1    18    19    1
     2    19     1    1
     3     1     2    1
     4     2     3   ar
     5     3     4   ar
     6     4     5   ar
     7     5    20    1
     8    20    21    1
     9    21    22    1
    10    22    23    1
    11    23    24   ar
    12    24    25   ar
    13    25    26   ar
    14    26    30    1
    15    30    31   ar
    16    30    32   ar
    17    26    27   ar
    18    27    28   ar
    19    28    29    1
    20     5     6   ar
    21     6     7   ar
    22     7     8    1
    23     8     9    2
    24     8    10   am
    25    10    11    1
    26    10    12    1
    27    12    13   ar
    28    13    14   ar
    29    14    15   ar
    30    15    16   ar
    31    16    17   ar
    32    17     1    1
    33     7     2   ar
    34    17    12   ar
    35    28    23   ar
@<TRIPOS>MOLECULE
*****
 32 35 0 0 0
SMALL
GASTEIGER

@<TRIPOS>ATOM
      1 N          62.7203   85.1999   11.2845 N.pl3   1  UNL1       -0.2567
      2 C          62.9526   86.5361   11.9252 C.ar    1  UNL1        0.1408
      3 N          62.5281   87.6574   11.0238 N.ar    1  UNL1       -0.2290
      4 C          62.6762   89.0801   11.4757 C.ar    1  UNL1        0.0961
      5 C          63.2488   89.3814   12.8289 C.ar    1  UNL1        0.0010
      6 C          63.6733   88.2601   13.7303 C.ar    1  UNL1        0.0047
      7 C          63.5252   86.8375   13.2785 C.ar    1  UNL1        0.0855
      8 C          64.0070   85.8771   14.3252 C.2     1  UNL1        0.2556
      9 O          64.5298   86.4977   15.5867 O.2     1  UNL1       -0.2695
     10 N          64.0352   84.3782   14.2770 N.am    1  UNL1       -0.2508
     11 C          64.5824   83.6980   15.4969 C.3     1  UNL1        0.1204
     12 C          63.5885   83.4693   13.1704 C.ar    1  UNL1        0.0863
     13 C          63.7905   82.0272   13.5304 C.ar    1  UNL1        0.0194
     14 C          63.4073   80.9509   12.5585 C.ar    1  UNL1        0.0221
     15 C          62.8221   81.3166   11.2267 C.ar    1  UNL1        0.1004
     16 N          62.6201   82.7587   10.8667 N.ar    1  UNL1       -0.2275
     17 C          63.0034   83.8350   11.8386 C.ar    1  UNL1        0.1502
     18 C          63.0224   85.2825    8.7052 C.3     1  UNL1        0.0237
     19 C          62.1266   85.2329    9.9074 C.3     1  UNL1        0.0984
     20 C          63.3969   90.8041   13.2807 C.3     1  UNL1        0.0752
     21 C          64.3947   91.1530   14.3449 C.3     1  UNL1        0.2101
     22 O          65.3285   92.3101   14.1470 O.3     1  UNL1       -0.4754
     23 C          66.0016   92.5126   12.8219 C.ar    1  UNL1        0.1345
     24 C          65.2148   93.0231   11.6513 C.ar    1  UNL1        0.0366
     25 C          65.8879   93.2256   10.3262 C.ar    1  UNL1        0.0042
     26 C          67.3478   92.9175   10.1717 C.ar    1  UNL1        0.0139
     27 C          68.1345   92.4070   11.3422 C.ar    1  UNL1       -0.0001
     28 C          67.4615   92.2045   12.6674 C.ar    1  UNL1        0.0121
     29 C          68.2482   91.6939   13.8381 C.3     1  UNL1        0.0342
     30 C          68.0209   93.1200    8.8465 C.2     1  UNL1        0.0729
     31 O          67.8185   94.3995    8.0903 O.co2   1  UNL1       -0.5446
     32 O          68.8964   92.0431    8.2777 O.co2   1  UNL1       -0.5446
@<TRIPOS>UNITY_ATOM_ATTR
31 1
charge -1
@<TRIPOS>BOND
     1    18    19    1
     2    19     1    1
     3     1     2    1
     4     2     3   ar
     5     3     4   ar
     6     4     5   ar
     7     5    20    1
     8    20    21    1
     9    21    22    1
    10    22    23    1
    11    23    24   ar
    12    24    25   ar
    13    25    26   ar
    14    26    30    1
    15    30    31   ar
    16    30    32   ar
    17    26    27   ar
    18    27    28   ar
    19    28    29    1
    20     5     6   ar
    21     6     7   ar
    22     7     8    1
    23     8     9    2
    24     8    10   am
    25    10    11    1
    26    10    12    1
    27    12    13   ar
    28    13    14   ar
    29    14    15   ar
    30    15    16   ar
    31    16    17   ar
    32    17     1    1
    33     7     2   ar
    34    17    12   ar
    35    28    23   ar
@<TRIPOS>MOLECULE
*****
 32 35 0 0 0
SMALL
GASTEIGER

@<TRIPOS>ATOM
      1 N          62.1007   86.3026   10.7268 N.pl3   1  UNL1       -0.2567
      2 C          62.6572   87.2435   11.7539 C.ar    1  UNL1        0.1408
      3 N          63.4824   86.5161   12.7737 N.ar    1  UNL1       -0.2290
      4 C          64.1322   87.2751   13.8925 C.ar    1  UNL1        0.0961
      5 C          63.9567   88.7615   13.9915 C.ar    1  UNL1        0.0010
      6 C          63.1314   89.4889   12.9718 C.ar    1  UNL1        0.0047
      7 C          62.4817   88.7299   11.8530 C.ar    1  UNL1        0.0855
      8 C          61.7064   89.6425   10.9495 C.2     1  UNL1        0.2556
      9 O          61.7249   91.0956   11.3208 O.2     1  UNL1       -0.2695
     10 N          60.9153   89.2939    9.7237 N.am    1  UNL1       -0.2508
     11 C          60.2471   90.4446    9.0314 C.3     1  UNL1        0.1204
     12 C          60.7038   87.9468    9.0987 C.ar    1  UNL1        0.0863
     13 C          59.8415   88.0397    7.8749 C.ar    1  UNL1        0.0194
     14 C          59.5068   86.8013    7.0975 C.ar    1  UNL1        0.0221
     15 C          60.0344   85.4700    7.5440 C.ar    1  UNL1        0.1004
     16 N          60.8967   85.3771    8.7678 N.ar    1  UNL1       -0.2275
     17 C          61.2314   86.6155    9.5451 C.ar    1  UNL1        0.1502
     18 C          63.5158   84.2352   10.0384 C.3     1  UNL1        0.0237
     19 C          62.4613   84.8575   10.9049 C.3     1  UNL1        0.0984
     20 C          64.6065   89.5205   15.1103 C.3     1  UNL1        0.0752
     21 C          64.1505   90.9116   15.4370 C.3     1  UNL1        0.2101
     22 O          65.0599   92.0776   15.1852 O.3     1  UNL1       -0.4754
     23 C          65.8281   92.1656   13.8998 C.ar    1  UNL1        0.1345
     24 C          65.1086   92.4454   12.6138 C.ar    1  UNL1        0.0366
     25 C          65.8769   92.5334   11.3284 C.ar    1  UNL1        0.0042
     26 C          67.3646   92.3416   11.3292 C.ar    1  UNL1        0.0139
     27 C          68.0840   92.0619   12.6153 C.ar    1  UNL1       -0.0001
     28 C          67.3158   91.9738   13.9007 C.ar    1  UNL1        0.0121
     29 C          68.0353   91.6941   15.1869 C.3     1  UNL1        0.0342
     30 C          68.1329   92.4297   10.0439 C.2     1  UNL1        0.0729
     31 O          68.0797   91.2992    9.0594 O.co2   1  UNL1       -0.5446
     32 O          68.9543   93.6481    9.7431 O.co2   1  UNL1       -0.5446
@<TRIPOS>UNITY_ATOM_ATTR
31 1
charge -1
@<TRIPOS>BOND
     1    18    19    1
     2    19     1    1
     3     1     2    1
     4     2     3   ar
     5     3     4   ar
     6     4     5   ar
     7     5    20    1
     8    20    21    1
     9    21    22    1
    10    22    23    1
    11    23    24   ar
    12    24    25   ar
    13    25    26   ar
    14    26    30    1
    15    30    31   ar
    16    30    32   ar
    17    26    27   ar
    18    27    28   ar
    19    28    29    1
    20     5     6   ar
    21     6     7   ar
    22     7     8    1
    23     8     9    2
    24     8    10   am
    25    10    11    1
    26    10    12    1
    27    12    13   ar
    28    13    14   ar
    29    14    15   ar
    30    15    16   ar
    31    16    17   ar
    32    17     1    1
    33     7     2   ar
    34    17    12   ar
    35    28    23   ar
@<TRIPOS>MOLECULE
*****
 32 35 0 0 0
SMALL
GASTEIGER

@<TRIPOS>ATOM
      1 N          61.0443   86.2402    8.6577 N.pl3   1  UNL1       -0.2567
      2 C          61.7839   85.8860    9.9136 C.ar    1  UNL1        0.1408
      3 N          62.2010   84.4451    9.9162 N.ar    1  UNL1       -0.2290
      4 C          62.9559   83.8849   11.0851 C.ar    1  UNL1        0.0961
      5 C          63.2938   84.7655   12.2514 C.ar    1  UNL1        0.0010
      6 C          62.8767   86.2064   12.2488 C.ar    1  UNL1        0.0047
      7 C          62.1218   86.7666   11.0800 C.ar    1  UNL1        0.0855
      8 C          61.8035   88.2190   11.2784 C.2     1  UNL1        0.2556
      9 O          62.2835   88.8205   12.5659 O.2     1  UNL1       -0.2695
     10 N          61.0686   89.1493   10.3595 N.am    1  UNL1       -0.2508
     11 C          60.9109   90.5582   10.8497 C.3     1  UNL1        0.1204
     12 C          60.4706   88.8573    9.0152 C.ar    1  UNL1        0.0863
     13 C          59.8212   90.0751    8.4280 C.ar    1  UNL1        0.0194
     14 C          59.1609   89.9983    7.0833 C.ar    1  UNL1        0.0221
     15 C          59.1500   88.7036    6.3260 C.ar    1  UNL1        0.1004
     16 N          59.7995   87.4857    6.9132 N.ar    1  UNL1       -0.2275
     17 C          60.4598   87.5625    8.2578 C.ar    1  UNL1        0.1502
     18 C          61.9572   84.8059    6.6931 C.3     1  UNL1        0.0237
     19 C          60.8654   85.1246    7.6711 C.3     1  UNL1        0.0984
     20 C          64.0487   84.2053   13.4202 C.3     1  UNL1        0.0752
     21 C          63.4110   84.1696   14.7774 C.3     1  UNL1        0.2101
     22 O          63.9739   84.9999   15.8927 O.3     1  UNL1       -0.4754
     23 C          63.9188   86.4969   15.8148 C.ar    1  UNL1        0.1345
     24 C          64.6013   87.2148   14.6885 C.ar    1  UNL1        0.0366
     25 C          64.5462   88.7118   14.6106 C.ar    1  UNL1        0.0042
     26 C          63.8086   89.4907   15.6590 C.ar    1  UNL1        0.0139
     27 C          63.1261   88.7727   16.7852 C.ar    1  UNL1       -0.0001
     28 C          63.1811   87.2758   16.8632 C.ar    1  UNL1        0.0121
     29 C          62.4986   86.5577   17.9895 C.3     1  UNL1        0.0342
     30 C          63.7535   90.9877   15.5811 C.2     1  UNL1        0.0729
     31 O          64.0354   91.6820   14.2816 O.co2   1  UNL1       -0.5446
     32 O          63.4164   91.7904   16.8025 O.co2   1  UNL1       -0.5446
@<TRIPOS>UNITY_ATOM_ATTR
31 1
charge -1
@<TRIPOS>BOND
     1    18    19    1
     2    19     1    1
     3     1     2    1
     4     2     3   ar
     5     3     4   ar
     6     4     5   ar
     7     5    20    1
     8    20    21    1
     9    21    22    1
    10    22    23    1
    11    23    24   ar
    12    24    25   ar
    13    25    26   ar
    14    26    30    1
    15    30    31   ar
    16    30    32   ar
    17    26    27   ar
    18    27    28   ar
    19    28    29    1
    20     5     6   ar
    21     6     7   ar
    22     7     8    1
    23     8     9    2
    24     8    10   am
    25    10    11    1
    26    10    12    1
    27    12    13   ar
    28    13    14   ar
    29    14    15   ar
    30    15    16   ar
    31    16    17   ar
    32    17     1    1
    33     7     2   ar
    34    17    12   ar
    35    28    23   ar
@<TRIPOS>MOLECULE
*****
 32 35 0 0 0
SMALL
GASTEIGER

@<TRIPOS>ATOM
      1 N          62.5800   88.7256   11.1432 N.pl3   1  UNL1       -0.2567
      2 C          63.2238   89.3306   12.3554 C.ar    1  UNL1        0.1408
      3 N          63.2207   90.8290   12.2875 N.ar    1  UNL1       -0.2290
      4 C          63.8192   91.6317   13.4044 C.ar    1  UNL1        0.0961
      5 C          64.4208   90.9360   14.5893 C.ar    1  UNL1        0.0010
      6 C          64.4240   89.4375   14.6572 C.ar    1  UNL1        0.0047
      7 C          63.8255   88.6348   13.5403 C.ar    1  UNL1        0.0855
      8 C          63.9319   87.1622   13.8056 C.2     1  UNL1        0.2556
      9 O          64.5950   86.7796   15.0955 O.2     1  UNL1       -0.2695
     10 N          63.4629   86.0219   12.9515 N.am    1  UNL1       -0.2508
     11 C          63.7190   84.6495   13.5002 C.3     1  UNL1        0.1204
     12 C          62.7717   86.0722   11.6212 C.ar    1  UNL1        0.0863
     13 C          62.4739   84.6954   11.1058 C.ar    1  UNL1        0.0194
     14 C          61.7832   84.5219    9.7857 C.ar    1  UNL1        0.0221
     15 C          61.3902   85.7252    8.9809 C.ar    1  UNL1        0.1004
     16 N          61.6880   87.1020    9.4963 N.ar    1  UNL1       -0.2275
     17 C          62.3787   87.2755   10.8164 C.ar    1  UNL1        0.1502
     18 C          60.6376   90.1439   10.1603 C.3     1  UNL1        0.0237
     19 C          62.0699   89.6996   10.1228 C.3     1  UNL1        0.0984
     20 C          65.0193   91.7386   15.7062 C.3     1  UNL1        0.0752
     21 C          66.2490   92.5623   15.4626 C.3     1  UNL1        0.2101
     22 O          66.1783   93.7723   14.5790 O.3     1  UNL1       -0.4754
     23 C          66.5919   93.6757   13.1403 C.ar    1  UNL1        0.1345
     24 C          66.1183   94.7011   12.1533 C.ar    1  UNL1        0.0366
     25 C          66.5318   94.6044   10.7146 C.ar    1  UNL1        0.0042
     26 C          67.4190   93.4823   10.2631 C.ar    1  UNL1        0.0139
     27 C          67.8926   92.4570   11.2501 C.ar    1  UNL1       -0.0001
     28 C          67.4791   92.5536   12.6887 C.ar    1  UNL1        0.0121
     29 C          67.9526   91.5282   13.6759 C.3     1  UNL1        0.0342
     30 C          67.8325   93.3856    8.8244 C.2     1  UNL1        0.0729
     31 O          68.5843   92.1816    8.3395 O.co2   1  UNL1       -0.5446
     32 O          67.4943   94.4929    7.8708 O.co2   1  UNL1       -0.5446
@<TRIPOS>UNITY_ATOM_ATTR
31 1
charge -1
@<TRIPOS>BOND
     1    18    19    1
     2    19     1    1
     3     1     2    1
     4     2     3   ar
     5     3     4   ar
     6     4     5   ar
     7     5    20    1
     8    20    21    1
     9    21    22    1
    10    22    23    1
    11    23    24   ar
    12    24    25   ar
    13    25    26   ar
    14    26    30    1
    15    30    31   ar
    16    30    32   ar
    17    26    27   ar
    18    27    28   ar
    19    28    29    1
    20     5     6   ar
    21     6     7   ar
    22     7     8    1
    23     8     9    2
    24     8    10   am
    25    10    11    1
    26    10    12    1
    27    12    13   ar
    28    13    14   ar
    29    14    15   ar
    30    15    16   ar
    31    16    17   ar
    32    17     1    1
    33     7     2   ar
    34    17    12   ar
    35    28    23   ar
@<TRIPOS>MOLECULE
*****
 32 35 0 0 0
SMALL
GASTEIGER

@<TRIPOS>ATOM
      1 N          63.9078   84.9035   13.5590 N.pl3   1  UNL1       -0.2567
      2 C          63.7477   86.3949   13.5737 C.ar    1  UNL1        0.1408
      3 N          64.1686   86.9785   14.8898 N.ar    1  UNL1       -0.2290
      4 C          64.0870   88.4594   15.1140 C.ar    1  UNL1        0.0961
      5 C          63.5845   89.3567   14.0222 C.ar    1  UNL1        0.0010
      6 C          63.1635   88.7731   12.7060 C.ar    1  UNL1        0.0047
      7 C          63.2451   87.2922   12.4817 C.ar    1  UNL1        0.0855
      8 C          62.7786   86.9198   11.1056 C.2     1  UNL1        0.2556
      9 O          62.3322   88.0599   10.2390 O.2     1  UNL1       -0.2695
     10 N          62.6994   85.5581   10.4816 N.am    1  UNL1       -0.2508
     11 C          62.1843   85.5165    9.0734 C.3     1  UNL1        0.1204
     12 C          63.0671   84.2324   11.0794 C.ar    1  UNL1        0.0863
     13 C          62.8342   83.1109   10.1109 C.ar    1  UNL1        0.0194
     14 C          63.1390   81.6981   10.5121 C.ar    1  UNL1        0.0221
     15 C          63.6768   81.4068   11.8818 C.ar    1  UNL1        0.1004
     16 N          63.9098   82.5283   12.8502 N.ar    1  UNL1       -0.2275
     17 C          63.6049   83.9411   12.4490 C.ar    1  UNL1        0.1502
     18 C          63.4940   83.7893   15.8694 C.3     1  UNL1        0.0237
     19 C          64.4413   84.2939   14.8215 C.3     1  UNL1        0.0984
     20 C          63.5029   90.8376   14.2464 C.3     1  UNL1        0.0752
     21 C          64.2652   91.4686   15.3736 C.3     1  UNL1        0.2101
     22 O          65.3244   92.4903   15.0834 O.3     1  UNL1       -0.4754
     23 C          66.0737   92.4457   13.7847 C.ar    1  UNL1        0.1345
     24 C          65.3817   92.8165   12.5066 C.ar    1  UNL1        0.0366
     25 C          66.1311   92.7719   11.2078 C.ar    1  UNL1        0.0042
     26 C          67.5723   92.3566   11.1874 C.ar    1  UNL1        0.0139
     27 C          68.2641   91.9858   12.4655 C.ar    1  UNL1       -0.0001
     28 C          67.5149   92.0304   13.7642 C.ar    1  UNL1        0.0121
     29 C          68.2068   91.6596   15.0425 C.3     1  UNL1        0.0342
     30 C          68.3216   92.3120    9.8887 C.2     1  UNL1        0.0729
     31 O          69.3494   93.3598    9.5795 O.co2   1  UNL1       -0.5446
     32 O          68.0431   91.2197    8.8992 O.co2   1  UNL1       -0.5446
@<TRIPOS>UNITY_ATOM_ATTR
31 1
charge -1
@<TRIPOS>BOND
     1    18    19    1
     2    19     1    1
     3     1     2    1
     4     2     3   ar
     5     3     4   ar
     6     4     5   ar
     7     5    20    1
     8    20    21    1
     9    21    22    1
    10    22    23    1
    11    23    24   ar
    12    24    25   ar
    13    25    26   ar
    14    26    30    1
    15    30    31   ar
    16    30    32   ar
    17    26    27   ar
    18    27    28   ar
    19    28    29    1
    20     5     6   ar
    21     6     7   ar
    22     7     8    1
    23     8     9    2
    24     8    10   am
    25    10    11    1
    26    10    12    1
    27    12    13   ar
    28    13    14   ar
    29    14    15   ar
    30    15    16   ar
    31    16    17   ar
    32    17     1    1
    33     7     2   ar
    34    17    12   ar
    35    28    23   ar
@<TRIPOS>MOLECULE
*****
 32 35 0 0 0
SMALL
GASTEIGER

@<TRIPOS>ATOM
      1 N          60.6659   94.2205    0.9475 N.pl3   1  UNL1       -0.2567
      2 C          60.7583   93.2532    2.0901 C.ar    1  UNL1        0.1408
      3 N          59.4385   93.0988    2.7858 N.ar    1  UNL1       -0.2290
      4 C          59.3132   92.1741    3.9602 C.ar    1  UNL1        0.0961
      5 C          60.5079   91.4037    4.4389 C.ar    1  UNL1        0.0010
      6 C          61.8279   91.5580    3.7432 C.ar    1  UNL1        0.0047
      7 C          61.9531   92.4828    2.5688 C.ar    1  UNL1        0.0855
      8 C          63.3504   92.4895    2.0232 C.2     1  UNL1        0.2556
      9 O          64.3294   91.5998    2.7301 O.2     1  UNL1       -0.2695
     10 N          63.8979   93.2683    0.8641 N.am    1  UNL1       -0.2508
     11 C          65.3522   93.0545    0.5651 C.3     1  UNL1        0.1204
     12 C          63.1835   94.2328   -0.0358 C.ar    1  UNL1        0.0863
     13 C          64.1048   94.7964   -1.0766 C.ar    1  UNL1        0.0194
     14 C          63.5877   95.7839   -2.0803 C.ar    1  UNL1        0.0221
     15 C          62.1493   96.2077   -2.0432 C.ar    1  UNL1        0.1004
     16 N          61.2280   95.6440   -1.0023 N.ar    1  UNL1       -0.2275
     17 C          61.7451   94.6565    0.0014 C.ar    1  UNL1        0.1502
     18 C          58.3800   94.2346   -0.2875 C.3     1  UNL1        0.0237
     19 C          59.3154   94.8330    0.7210 C.3     1  UNL1        0.0984
     20 C          60.3827   90.4790    5.6133 C.3     1  UNL1        0.0752
     21 C          59.0264   90.0488    6.0879 C.3     1  UNL1        0.2101
     22 O          58.8808   88.8074    6.9172 O.3     1  UNL1       -0.4754
     23 C          59.7946   88.5731    8.0835 C.ar    1  UNL1        0.1345
     24 C          60.2197   89.7241    8.9462 C.ar    1  UNL1        0.0366
     25 C          61.1334   89.4898   10.1125 C.ar    1  UNL1        0.0042
     26 C          61.6220   88.1045   10.4160 C.ar    1  UNL1        0.0139
     27 C          61.1969   86.9535    9.5532 C.ar    1  UNL1       -0.0001
     28 C          60.2832   87.1877    8.3869 C.ar    1  UNL1        0.0121
     29 C          59.8581   86.0367    7.5241 C.3     1  UNL1        0.0342
     30 C          62.5358   87.8701   11.5823 C.2     1  UNL1        0.0729
     31 O          63.2640   89.0226   12.2079 O.co2   1  UNL1       -0.5446
     32 O          62.7214   86.4833   12.1228 O.co2   1  UNL1       -0.5446
@<TRIPOS>UNITY_ATOM_ATTR
31 1
charge -1
@<TRIPOS>BOND
     1    18    19    1
     2    19     1    1
     3     1     2    1
     4     2     3   ar
     5     3     4   ar
     6     4     5   ar
     7     5    20    1
     8    20    21    1
     9    21    22    1
    10    22    23    1
    11    23    24   ar
    12    24    25   ar
    13    25    26   ar
    14    26    30    1
    15    30    31   ar
    16    30    32   ar
    17    26    27   ar
    18    27    28   ar
    19    28    29    1
    20     5     6   ar
    21     6     7   ar
    22     7     8    1
    23     8     9    2
    24     8    10   am
    25    10    11    1
    26    10    12    1
    27    12    13   ar
    28    13    14   ar
    29    14    15   ar
    30    15    16   ar
    31    16    17   ar
    32    17     1    1
    33     7     2   ar
    34    17    12   ar
    35    28    23   ar
