@<TRIPOS>MOLECULE
*****
 56 62 0 0 0
SMALL
GASTEIGER

@<TRIPOS>ATOM
      1 N          61.3809   85.7225    8.2096 N.3     1  UNL1       -0.1862
      2 C          62.3000   84.6097    8.6181 C.3     1  UNL1        0.1775
      3 C          62.9806   84.6512    9.9542 C.2     1  UNL1        0.2452
      4 O          63.8997   83.5383   10.3626 O.2     1  UNL1       -0.2732
      5 N          62.7420   85.8056   10.8818 N.am    1  UNL1       -0.2541
      6 C          63.4226   85.8471   12.2179 C.3     1  UNL1        0.1577
      7 C          63.1841   87.0015   13.1455 C.2     1  UNL1        0.2445
      8 O          63.8646   87.0430   14.4816 O.2     1  UNL1       -0.2731
      9 N          62.2649   88.1144   12.7371 N.am    1  UNL1       -0.2705
     10 C          61.5844   88.0728   11.4010 C.3     1  UNL1        0.1359
     11 C          61.8229   86.9184   10.4733 C.3     1  UNL1        0.1908
     12 N          61.1424   86.8768    9.1373 N.am    1  UNL1       -0.1863
     13 C          60.2232   87.9897    8.7288 C.2     1  UNL1        0.3191
     14 O          59.9847   89.1441    9.6564 O.2     1  UNL1       -0.2512
     15 N          59.5427   87.9482    7.3928 N.am    1  UNL1       -0.2836
     16 H          59.6992   87.1905    6.7839 H       1  UNL1        0.1513
     17 C          60.7003   85.6809    6.8736 C.3     1  UNL1        0.1188
     18 C          62.3212   84.2185    5.4651 C.2     1  UNL1       -0.0034
     19 C          60.9344   84.5238    5.9483 C.2     1  UNL1       -0.0071
     20 C          64.3417   84.7343   12.6263 C.3     1  UNL1        0.0556
     21 C          63.7749   83.4212   13.0784 C.ar    1  UNL1       -0.0198
     22 C          62.6908   83.3891   14.1146 C.ar    1  UNL1       -0.0011
     23 C          62.1240   82.0760   14.5666 C.ar    1  UNL1        0.0363
     24 C          62.6413   80.7949   13.9826 C.ar    1  UNL1        0.1337
     25 O          62.0745   79.4817   14.4347 O.3     1  UNL1       -0.5055
     26 C          63.7255   80.8269   12.9464 C.ar    1  UNL1        0.0363
     27 C          64.2923   82.1400   12.4943 C.ar    1  UNL1       -0.0011
     28 H          61.3973   79.4617   15.0819 H       1  UNL1        0.2922
     29 C          62.0264   89.2687   13.6647 C.3     1  UNL1        0.1217
     30 C          63.1541   90.1928   14.0175 C.ar    1  UNL1        0.0135
     31 C          63.6905   90.2210   15.4180 C.ar    1  UNL1       -0.0012
     32 C          64.8181   91.1450   15.7709 C.ar    1  UNL1       -0.0002
     33 C          65.4094   92.0409   14.7232 C.ar    1  UNL1        0.0016
     34 C          64.8731   92.0127   13.3226 C.ar    1  UNL1        0.0214
     35 C          65.2517   92.7748   12.0874 C.ar    1  UNL1        0.0721
     36 C          64.3580   92.3217   10.9711 C.ar    1  UNL1        0.0805
     37 N          63.4271   91.2797   11.5165 N.ar    1  UNL1       -0.3241
     38 C          62.3645   90.5557   10.7441 C.3     1  UNL1        0.1305
     39 C          63.7454   91.0887   12.9698 C.ar    1  UNL1        0.0577
     40 C          66.3340   93.8085   11.9861 C.2     1  UNL1        0.2506
     41 O          67.2239   94.0802   13.1627 O.2     1  UNL1       -0.2699
     42 N          66.5264   94.5703   10.7084 N.am    1  UNL1       -0.2732
     43 C          67.6086   95.6039   10.6071 C.3     1  UNL1        0.1110
     44 C          67.8010   96.3658    9.3294 C.3     1  UNL1        0.0939
     45 N          66.9111   96.0940    8.1529 N.3     1  UNL1       -0.2698
     46 C          65.8288   95.0603    8.2542 C.3     1  UNL1        0.0939
     47 C          65.6364   94.2984    9.5319 C.3     1  UNL1        0.1110
     48 C          67.1034   96.8558    6.8752 C.3     1  UNL1        0.0722
     49 C          66.0274   96.8516    5.8302 C.3     1  UNL1        0.0188
     50 C          58.6236   89.0610    6.9843 C.3     1  UNL1        0.1177
     51 C          59.0866   90.0925    5.9986 C.ar    1  UNL1       -0.0025
     52 C          58.0929   91.0122    5.3530 C.ar    1  UNL1       -0.0026
     53 C          58.5559   92.0438    4.3674 C.ar    1  UNL1       -0.0003
     54 C          60.0125   92.1556    4.0273 C.ar    1  UNL1       -0.0000
     55 C          61.0063   91.2359    4.6729 C.ar    1  UNL1       -0.0003
     56 C          60.5433   90.2044    5.6586 C.ar    1  UNL1       -0.0026
@<TRIPOS>BOND
     1    18    19    2
     2    19    17    1
     3    17     1    1
     4     1     2    1
     5     2     3    1
     6     3     4    2
     7     3     5   am
     8     5     6    1
     9     6    20    1
    10    20    21    1
    11    21    22   ar
    12    22    23   ar
    13    23    24   ar
    14    24    25    1
    15    24    26   ar
    16    26    27   ar
    17     6     7    1
    18     7     8    2
    19     7     9   am
    20     9    29    1
    21    29    30    1
    22    30    31   ar
    23    31    32   ar
    24    32    33   ar
    25    33    34   ar
    26    34    35   ar
    27    35    40    1
    28    40    41    2
    29    40    42   am
    30    42    43    1
    31    43    44    1
    32    44    45    1
    33    45    48    1
    34    48    49    1
    35    45    46    1
    36    46    47    1
    37    35    36   ar
    38    36    37   ar
    39    37    38    1
    40    37    39   ar
    41     9    10    1
    42    11    10    1
    43    11    12    1
    44    12    13   am
    45    13    14    2
    46    13    15   am
    47    15    50    1
    48    50    51    1
    49    51    52   ar
    50    52    53   ar
    51    53    54   ar
    52    54    55   ar
    53    55    56   ar
    54    12     1    1
    55    56    51   ar
    56    11     5    1
    57    27    21   ar
    58    39    30   ar
    59    39    34   ar
    60    47    42    1
    61    25    28    1
    62    15    16    1
