@<TRIPOS>MOLECULE
*****
 71 77 0 0 0
SMALL
GASTEIGER

@<TRIPOS>ATOM
      1 C          58.9509   93.4438    1.8884 C.3     1  UNL1        0.1217
      2 N          62.3225   94.7029   -3.5703 N.3     1  UNL1       -0.1862
      3 C          61.2455   94.3015   -4.5341 C.3     1  UNL1        0.1775
      4 C          59.9250   93.8089   -4.0207 C.2     1  UNL1        0.2452
      5 O          58.8481   93.4074   -4.9846 O.2     1  UNL1       -0.2732
      6 N          59.6815   93.7176   -2.5435 N.am    1  UNL1       -0.2541
      7 C          58.3610   93.2249   -2.0301 C.3     1  UNL1        0.1577
      8 C          58.1175   93.1337   -0.5528 C.2     1  UNL1        0.2445
      9 O          56.7970   92.6410   -0.0394 O.2     1  UNL1       -0.2731
     10 N          59.1944   93.5351    0.4111 N.am    1  UNL1       -0.2705
     11 C          60.5149   94.0278   -0.1023 C.3     1  UNL1        0.1359
     12 C          60.7584   94.1190   -1.5796 C.3     1  UNL1        0.1908
     13 N          62.0789   94.6117   -2.0931 N.am    1  UNL1       -0.1863
     14 C          63.1559   95.0131   -1.1291 C.2     1  UNL1        0.3191
     15 O          62.9123   94.9218    0.3481 O.2     1  UNL1       -0.2512
     16 N          64.4764   95.5058   -1.6425 N.am    1  UNL1       -0.2836
     17 H          64.6362   95.5657   -2.6121 H       1  UNL1        0.1513
     18 C          65.5533   95.9072   -0.6787 C.3     1  UNL1        0.1177
     19 C          65.3647   95.6833    0.7925 C.ar    1  UNL1       -0.0025
     20 C          65.2754   96.8555    1.7240 C.ar    1  UNL1       -0.0026
     21 C          65.0868   96.6317    3.1952 C.ar    1  UNL1       -0.0003
     22 C          64.9875   95.2357    3.7348 C.ar    1  UNL1       -0.0000
     23 C          65.0768   94.0634    2.8032 C.ar    1  UNL1       -0.0003
     24 C          65.2654   94.2872    1.3320 C.ar    1  UNL1       -0.0026
     25 C          57.2841   92.8235   -2.9939 C.3     1  UNL1        0.0556
     26 C          56.2368   93.8159   -3.4042 C.ar    1  UNL1       -0.0198
     27 C          55.5084   94.6117   -2.3621 C.ar    1  UNL1       -0.0011
     28 C          54.4611   95.6041   -2.7725 C.ar    1  UNL1        0.0363
     29 C          54.1423   95.8007   -4.2249 C.ar    1  UNL1        0.1337
     30 O          53.0950   96.7931   -4.6353 O.3     1  UNL1       -0.5055
     31 C          54.8707   95.0049   -5.2671 C.ar    1  UNL1        0.0363
     32 C          55.9180   94.0125   -4.8568 C.ar    1  UNL1       -0.0011
     33 H          52.6400   97.2902   -3.9843 H       1  UNL1        0.2922
     34 C          63.6429   95.1956   -4.0837 C.3     1  UNL1        0.1188
     35 C          64.4691   92.7626   -4.4686 C.2     1  UNL1       -0.0034
     36 C          64.6077   94.2358   -4.7146 C.2     1  UNL1       -0.0071
     37 C          59.8735   92.6359    2.7521 C.ar    1  UNL1        0.0135
     38 C          61.3410   92.5904    2.4445 C.ar    1  UNL1       -0.0012
     39 C          62.2636   91.7825    3.3082 C.ar    1  UNL1       -0.0002
     40 C          61.7188   91.0202    4.4795 C.ar    1  UNL1        0.0016
     41 C          60.2514   91.0657    4.7871 C.ar    1  UNL1        0.0214
     42 C          59.4317   90.4224    5.8661 C.ar    1  UNL1        0.0722
     43 C          58.0024   90.8327    5.6692 C.ar    1  UNL1        0.0805
     44 N          57.9388   91.7295    4.4686 N.ar    1  UNL1       -0.3241
     45 C          56.7023   92.3700    3.9110 C.3     1  UNL1        0.1305
     46 C          59.3288   91.8735    3.9234 C.ar    1  UNL1        0.0577
     47 C          59.9502   89.5261    6.9514 C.2     1  UNL1        0.2510
     48 O          59.6848   88.0508    6.8965 O.2     1  UNL1       -0.2698
     49 N          60.7341   90.1051    8.0917 N.am    1  UNL1       -0.2791
     50 H          60.9083   91.0734    8.1277 H       1  UNL1        0.1552
     51 C          61.2527   89.2090    9.1770 C.ar    1  UNL1        0.0701
     52 C          62.0931   89.7778   10.2816 C.ar    1  UNL1        0.0191
     53 C          62.6117   88.8817   11.3670 C.ar    1  UNL1        0.0356
     54 C          62.2898   87.4168   11.3477 C.ar    1  UNL1        0.1319
     55 N          61.4494   86.8479   10.2431 N.ar    1  UNL1       -0.2279
     56 C          60.9308   87.7440    9.1577 C.ar    1  UNL1        0.1149
     57 N          62.8084   86.5206   12.4330 N.pl3   1  UNL1       -0.2904
     58 C          63.6339   87.0923   13.5473 C.3     1  UNL1        0.1095
     59 C          64.1076   88.5139   13.4767 C.3     1  UNL1        0.0938
     60 N          63.9860   89.4054   14.6768 N.3     1  UNL1       -0.2712
     61 C          62.9192   89.1458   15.6989 C.3     1  UNL1        0.0722
     62 C          63.1446   88.1262   16.7758 C.3     1  UNL1        0.0188
     63 C          64.9312   90.5564   14.8549 C.3     1  UNL1        0.0722
     64 C          64.5966   91.6602   15.8140 C.3     1  UNL1        0.0188
     65 C          62.5014   85.0526   12.4041 C.3     1  UNL1        0.1095
     66 C          63.6159   84.0553   12.2886 C.3     1  UNL1        0.0938
     67 N          63.4632   82.6875   12.8851 N.3     1  UNL1       -0.2712
     68 C          63.8781   82.4380   14.3048 C.3     1  UNL1        0.0722
     69 C          63.9642   83.5805   15.2729 C.3     1  UNL1        0.0188
     70 C          62.8956   81.5694   12.0620 C.3     1  UNL1        0.0722
     71 C          63.2795   81.4312   10.6185 C.3     1  UNL1        0.0188
@<TRIPOS>BOND
     1    35    36    2
     2    36    34    1
     3    34     2    1
     4     2     3    1
     5     3     4    1
     6     4     5    2
     7     4     6   am
     8     6     7    1
     9     7    25    1
    10    25    26    1
    11    26    27   ar
    12    27    28   ar
    13    28    29   ar
    14    29    30    1
    15    29    31   ar
    16    31    32   ar
    17     7     8    1
    18     8     9    2
    19     8    10   am
    20    10     1    1
    21     1    37    1
    22    37    38   ar
    23    38    39   ar
    24    39    40   ar
    25    40    41   ar
    26    41    42   ar
    27    42    47    1
    28    47    48    2
    29    47    49   am
    30    49    51    1
    31    51    52   ar
    32    52    53   ar
    33    53    54   ar
    34    54    57    1
    35    57    65    1
    36    65    66    1
    37    66    67    1
    38    67    68    1
    39    68    69    1
    40    67    70    1
    41    70    71    1
    42    57    58    1
    43    58    59    1
    44    59    60    1
    45    60    63    1
    46    63    64    1
    47    60    61    1
    48    61    62    1
    49    54    55   ar
    50    55    56   ar
    51    42    43   ar
    52    43    44   ar
    53    44    45    1
    54    44    46   ar
    55    10    11    1
    56    11    12    1
    57    12    13    1
    58    13    14   am
    59    14    15    2
    60    14    16   am
    61    16    18    1
    62    18    19    1
    63    19    20   ar
    64    20    21   ar
    65    21    22   ar
    66    22    23   ar
    67    23    24   ar
    68    13     2    1
    69    24    19   ar
    70    12     6    1
    71    32    26   ar
    72    46    37   ar
    73    46    41   ar
    74    56    51   ar
    75    30    33    1
    76    49    50    1
    77    16    17    1
@<TRIPOS>MOLECULE
*****
 71 77 0 0 0
SMALL
GASTEIGER

@<TRIPOS>ATOM
      1 C          58.5522   93.1332    1.9688 C.3     1  UNL1        0.1217
      2 N          62.2641   94.2502   -3.2966 N.3     1  UNL1       -0.1862
      3 C          61.1421   94.2987   -4.2909 C.3     1  UNL1        0.1775
      4 C          59.7265   94.1045   -3.8344 C.2     1  UNL1        0.2452
      5 O          58.6044   94.1530   -4.8288 O.2     1  UNL1       -0.2732
      6 N          59.4329   93.8617   -2.3836 N.am    1  UNL1       -0.2541
      7 C          58.0173   93.6674   -1.9272 C.3     1  UNL1        0.1577
      8 C          57.7237   93.4246   -0.4764 C.2     1  UNL1        0.2445
      9 O          56.3081   93.2303   -0.0199 O.2     1  UNL1       -0.2731
     10 N          58.8458   93.3760    0.5180 N.am    1  UNL1       -0.2705
     11 C          60.2614   93.5703    0.0615 C.3     1  UNL1        0.1359
     12 C          60.5549   93.8131   -1.3893 C.3     1  UNL1        0.1908
     13 N          61.9705   94.0074   -1.8458 N.am    1  UNL1       -0.1863
     14 C          63.0925   93.9588   -0.8514 C.2     1  UNL1        0.3191
     15 O          62.7990   93.7160    0.5994 O.2     1  UNL1       -0.2512
     16 N          64.5081   94.1531   -1.3079 N.am    1  UNL1       -0.2836
     17 H          64.7008   94.3125   -2.2601 H       1  UNL1        0.1513
     18 C          65.6301   94.1045   -0.3136 C.3     1  UNL1        0.1177
     19 C          65.4695   94.7503    1.0307 C.ar    1  UNL1       -0.0025
     20 C          65.1382   96.2101    1.1267 C.ar    1  UNL1       -0.0026
     21 C          64.9775   96.8559    2.4710 C.ar    1  UNL1       -0.0003
     22 C          65.1481   96.0419    3.7193 C.ar    1  UNL1       -0.0000
     23 C          65.4794   94.5820    3.6233 C.ar    1  UNL1       -0.0003
     24 C          65.6401   93.9363    2.2790 C.ar    1  UNL1       -0.0026
     25 C          56.8953   93.7160   -2.9215 C.3     1  UNL1        0.0556
     26 C          56.2540   92.4440   -3.3913 C.ar    1  UNL1       -0.0198
     27 C          55.8825   92.2802   -4.8353 C.ar    1  UNL1       -0.0011
     28 C          55.2412   91.0082   -5.3052 C.ar    1  UNL1        0.0363
     29 C          54.9713   89.9000   -4.3310 C.ar    1  UNL1        0.1337
     30 O          54.3300   88.6280   -4.8009 O.3     1  UNL1       -0.5055
     31 C          55.3427   90.0638   -2.8869 C.ar    1  UNL1        0.0363
     32 C          55.9841   91.3358   -2.4171 C.ar    1  UNL1       -0.0011
     33 H          54.0980   88.5257   -5.7029 H       1  UNL1        0.2922
     34 C          63.6797   94.4445   -3.7531 C.3     1  UNL1        0.1188
     35 C          65.3541   94.4474   -5.7396 C.2     1  UNL1       -0.0034
     36 C          64.1200   93.9051   -5.0816 C.2     1  UNL1       -0.0071
     37 C          59.5198   92.3543    2.8097 C.ar    1  UNL1        0.0135
     38 C          60.9734   92.3180    2.4413 C.ar    1  UNL1       -0.0012
     39 C          61.9410   91.5391    3.2822 C.ar    1  UNL1       -0.0002
     40 C          61.4550   90.7964    4.4913 C.ar    1  UNL1        0.0016
     41 C          60.0013   90.8326    4.8597 C.ar    1  UNL1        0.0214
     42 C          59.2353   90.2040    5.9857 C.ar    1  UNL1        0.0722
     43 C          57.7943   90.5944    5.8408 C.ar    1  UNL1        0.0805
     44 N          57.6697   91.4643    4.6252 N.ar    1  UNL1       -0.3241
     45 C          56.4035   92.0791    4.1070 C.3     1  UNL1        0.1305
     46 C          59.0338   91.6116    4.0188 C.ar    1  UNL1        0.0577
     47 C          59.8095   89.3371    7.0669 C.2     1  UNL1        0.2510
     48 O          59.7039   87.8442    6.9665 O.2     1  UNL1       -0.2698
     49 N          60.4893   89.9632    8.2484 N.am    1  UNL1       -0.2791
     50 H          60.5586   90.9430    8.3142 H       1  UNL1        0.1552
     51 C          61.0635   89.0964    9.3295 C.ar    1  UNL1        0.0701
     52 C          61.8199   87.8518    8.9705 C.ar    1  UNL1        0.0191
     53 C          62.3941   86.9850   10.0516 C.ar    1  UNL1        0.0356
     54 C          62.2120   87.3627   11.4917 C.ar    1  UNL1        0.1319
     55 N          61.4556   88.6073   11.8508 N.ar    1  UNL1       -0.2279
     56 C          60.8814   89.4741   10.7697 C.ar    1  UNL1        0.1149
     57 N          62.7862   86.4959   12.5729 N.pl3   1  UNL1       -0.2904
     58 C          63.5668   87.1142   13.6946 C.3     1  UNL1        0.1095
     59 C          64.1208   88.5005   13.5479 C.3     1  UNL1        0.0938
     60 N          63.4045   89.6638   14.1673 N.3     1  UNL1       -0.2712
     61 C          62.8373   89.5450   15.5509 C.3     1  UNL1        0.0722
     62 C          63.5405   90.1910   16.7077 C.3     1  UNL1        0.0188
     63 C          63.2554   90.9460   13.4032 C.3     1  UNL1        0.0722
     64 C          64.1510   91.2309   12.2342 C.3     1  UNL1        0.0188
     65 C          62.5798   85.0107   12.5323 C.3     1  UNL1        0.1095
     66 C          63.6421   84.0912   13.0578 C.3     1  UNL1        0.0938
     67 N          63.9813   82.8340   12.3132 N.3     1  UNL1       -0.2712
     68 C          63.7525   81.4976   12.9547 C.3     1  UNL1        0.0722
     69 C          62.4102   81.1643   13.5353 C.3     1  UNL1        0.0188
     70 C          64.5492   82.9133   10.9271 C.3     1  UNL1        0.0722
     71 C          63.7634   83.5702    9.8311 C.3     1  UNL1        0.0188
@<TRIPOS>BOND
     1    35    36    2
     2    36    34    1
     3    34     2    1
     4     2     3    1
     5     3     4    1
     6     4     5    2
     7     4     6   am
     8     6     7    1
     9     7    25    1
    10    25    26    1
    11    26    27   ar
    12    27    28   ar
    13    28    29   ar
    14    29    30    1
    15    29    31   ar
    16    31    32   ar
    17     7     8    1
    18     8     9    2
    19     8    10   am
    20    10     1    1
    21     1    37    1
    22    37    38   ar
    23    38    39   ar
    24    39    40   ar
    25    40    41   ar
    26    41    42   ar
    27    42    47    1
    28    47    48    2
    29    47    49   am
    30    49    51    1
    31    51    52   ar
    32    52    53   ar
    33    53    54   ar
    34    54    57    1
    35    57    65    1
    36    65    66    1
    37    66    67    1
    38    67    68    1
    39    68    69    1
    40    67    70    1
    41    70    71    1
    42    57    58    1
    43    58    59    1
    44    59    60    1
    45    60    63    1
    46    63    64    1
    47    60    61    1
    48    61    62    1
    49    54    55   ar
    50    55    56   ar
    51    42    43   ar
    52    43    44   ar
    53    44    45    1
    54    44    46   ar
    55    10    11    1
    56    11    12    1
    57    12    13    1
    58    13    14   am
    59    14    15    2
    60    14    16   am
    61    16    18    1
    62    18    19    1
    63    19    20   ar
    64    20    21   ar
    65    21    22   ar
    66    22    23   ar
    67    23    24   ar
    68    13     2    1
    69    24    19   ar
    70    12     6    1
    71    32    26   ar
    72    46    37   ar
    73    46    41   ar
    74    56    51   ar
    75    30    33    1
    76    49    50    1
    77    16    17    1
@<TRIPOS>MOLECULE
*****
 71 77 0 0 0
SMALL
GASTEIGER

@<TRIPOS>ATOM
      1 C          58.7246   93.5480    1.6982 C.3     1  UNL1        0.1217
      2 N          62.2668   95.0887   -3.5771 N.3     1  UNL1       -0.1862
      3 C          61.1428   95.0122   -4.5674 C.3     1  UNL1        0.1775
      4 C          59.7599   94.6581   -4.1065 C.2     1  UNL1        0.2452
      5 O          58.6359   94.5816   -5.0969 O.2     1  UNL1       -0.2732
      6 N          59.5011   94.3806   -2.6554 N.am    1  UNL1       -0.2541
      7 C          58.1182   94.0266   -2.1945 C.3     1  UNL1        0.1577
      8 C          57.8594   93.7490   -0.7433 C.2     1  UNL1        0.2445
      9 O          56.4766   93.3950   -0.2825 O.2     1  UNL1       -0.2731
     10 N          58.9834   93.8255    0.2470 N.am    1  UNL1       -0.2705
     11 C          60.3663   94.1796   -0.2138 C.3     1  UNL1        0.1359
     12 C          60.6251   94.4571   -1.6651 C.3     1  UNL1        0.1908
     13 N          62.0079   94.8111   -2.1260 N.am    1  UNL1       -0.1863
     14 C          63.1320   94.8876   -1.1356 C.2     1  UNL1        0.3191
     15 O          62.8731   94.6101    0.3156 O.2     1  UNL1       -0.2512
     16 N          64.5148   95.2417   -1.5965 N.am    1  UNL1       -0.2836
     17 H          64.6847   95.4238   -2.5490 H       1  UNL1        0.1513
     18 C          65.6388   95.3182   -0.6062 C.3     1  UNL1        0.1177
     19 C          65.3407   95.4148    0.8607 C.ar    1  UNL1       -0.0025
     20 C          65.1001   94.1690    1.6607 C.ar    1  UNL1       -0.0026
     21 C          64.8020   94.2656    3.1276 C.ar    1  UNL1       -0.0003
     22 C          64.7446   95.6079    3.7945 C.ar    1  UNL1       -0.0000
     23 C          64.9852   96.8538    2.9945 C.ar    1  UNL1       -0.0003
     24 C          65.2833   96.7572    1.5276 C.ar    1  UNL1       -0.0026
     25 C          56.9942   93.9501   -3.1848 C.3     1  UNL1        0.0556
     26 C          56.3686   92.6257   -3.5084 C.ar    1  UNL1       -0.0198
     27 C          56.0150   92.2899   -4.9269 C.ar    1  UNL1       -0.0011
     28 C          55.3894   90.9656   -5.2505 C.ar    1  UNL1        0.0363
     29 C          55.1174   89.9770   -4.1557 C.ar    1  UNL1        0.1337
     30 O          54.4918   88.6527   -4.4793 O.3     1  UNL1       -0.5055
     31 C          55.4711   90.3128   -2.7371 C.ar    1  UNL1        0.0363
     32 C          56.0967   91.6371   -2.4135 C.ar    1  UNL1       -0.0011
     33 H          54.2709   88.4430   -5.3654 H       1  UNL1        0.2922
     34 C          63.6496   95.4427   -4.0380 C.3     1  UNL1        0.1188
     35 C          64.4332   94.0399   -6.0796 C.2     1  UNL1       -0.0034
     36 C          64.0015   95.3513   -5.4933 C.2     1  UNL1       -0.0071
     37 C          59.7108   92.7476    2.4963 C.ar    1  UNL1        0.0135
     38 C          61.1538   92.7130    2.0882 C.ar    1  UNL1       -0.0012
     39 C          62.1399   91.9126    2.8862 C.ar    1  UNL1       -0.0002
     40 C          61.6831   91.1468    4.0923 C.ar    1  UNL1        0.0016
     41 C          60.2401   91.1814    4.5004 C.ar    1  UNL1        0.0214
     42 C          59.5016   90.5325    5.6334 C.ar    1  UNL1        0.0722
     43 C          58.0591   90.9319    5.5356 C.ar    1  UNL1        0.0805
     44 N          57.9060   91.8275    4.3422 N.ar    1  UNL1       -0.3241
     45 C          56.6292   92.4583    3.8712 C.3     1  UNL1        0.1305
     46 C          59.2539   91.9818    3.7024 C.ar    1  UNL1        0.0577
     47 C          60.1006   89.6408    6.6804 C.2     1  UNL1        0.2510
     48 O          60.4690   88.2271    6.3401 O.2     1  UNL1       -0.2698
     49 N          60.3311   90.1627    8.0676 N.am    1  UNL1       -0.2791
     50 H          60.0892   91.0906    8.2909 H       1  UNL1        0.1552
     51 C          60.9300   89.2711    9.1146 C.ar    1  UNL1        0.0701
     52 C          62.1028   89.7444    9.9212 C.ar    1  UNL1        0.0191
     53 C          62.7018   88.8529   10.9682 C.ar    1  UNL1        0.0356
     54 C          62.1280   87.4880   11.2087 C.ar    1  UNL1        0.1319
     55 N          60.9552   87.0147   10.4021 N.ar    1  UNL1       -0.2279
     56 C          60.3562   87.9062    9.3551 C.ar    1  UNL1        0.1149
     57 N          62.7269   86.5964   12.2557 N.pl3   1  UNL1       -0.2904
     58 C          63.0839   85.1789   11.9189 C.3     1  UNL1        0.1095
     59 C          63.7937   84.3245   12.9271 C.3     1  UNL1        0.0938
     60 N          63.7953   82.8320   12.7770 N.3     1  UNL1       -0.2712
     61 C          63.1944   81.9700   13.8476 C.3     1  UNL1        0.0722
     62 C          62.2634   82.5702   14.8590 C.3     1  UNL1        0.0188
     63 C          64.3976   82.2015   11.5565 C.3     1  UNL1        0.0722
     64 C          63.5100   81.6023   10.5062 C.3     1  UNL1        0.0188
     65 C          62.9690   87.1222   13.6395 C.3     1  UNL1        0.1095
     66 C          64.1872   87.9494   13.9252 C.3     1  UNL1        0.0938
     67 N          64.0412   89.3199   14.5172 N.3     1  UNL1       -0.2712
     68 C          63.1186   89.5405   15.6791 C.3     1  UNL1        0.0722
     69 C          63.1623   88.6141   16.8580 C.3     1  UNL1        0.0188
     70 C          64.8179   90.4696   13.9473 C.3     1  UNL1        0.0722
     71 C          65.7048   91.2898   14.8366 C.3     1  UNL1        0.0188
@<TRIPOS>BOND
     1    35    36    2
     2    36    34    1
     3    34     2    1
     4     2     3    1
     5     3     4    1
     6     4     5    2
     7     4     6   am
     8     6     7    1
     9     7    25    1
    10    25    26    1
    11    26    27   ar
    12    27    28   ar
    13    28    29   ar
    14    29    30    1
    15    29    31   ar
    16    31    32   ar
    17     7     8    1
    18     8     9    2
    19     8    10   am
    20    10     1    1
    21     1    37    1
    22    37    38   ar
    23    38    39   ar
    24    39    40   ar
    25    40    41   ar
    26    41    42   ar
    27    42    47    1
    28    47    48    2
    29    47    49   am
    30    49    51    1
    31    51    52   ar
    32    52    53   ar
    33    53    54   ar
    34    54    57    1
    35    57    65    1
    36    65    66    1
    37    66    67    1
    38    67    68    1
    39    68    69    1
    40    67    70    1
    41    70    71    1
    42    57    58    1
    43    58    59    1
    44    59    60    1
    45    60    63    1
    46    63    64    1
    47    60    61    1
    48    61    62    1
    49    54    55   ar
    50    55    56   ar
    51    42    43   ar
    52    43    44   ar
    53    44    45    1
    54    44    46   ar
    55    10    11    1
    56    11    12    1
    57    12    13    1
    58    13    14   am
    59    14    15    2
    60    14    16   am
    61    16    18    1
    62    18    19    1
    63    19    20   ar
    64    20    21   ar
    65    21    22   ar
    66    22    23   ar
    67    23    24   ar
    68    13     2    1
    69    24    19   ar
    70    12     6    1
    71    32    26   ar
    72    46    37   ar
    73    46    41   ar
    74    56    51   ar
    75    30    33    1
    76    49    50    1
    77    16    17    1
@<TRIPOS>MOLECULE
*****
 71 77 0 0 0
SMALL
GASTEIGER

@<TRIPOS>ATOM
      1 C          61.0700   87.4589    9.9976 C.3     1  UNL1        0.1217
      2 N          65.2016   89.3697   14.6910 N.3     1  UNL1       -0.1862
      3 C          65.2662   88.0545   15.4093 C.3     1  UNL1        0.1775
      4 C          64.4787   86.8832   14.9016 C.2     1  UNL1        0.2452
      5 O          64.5434   85.5679   15.6199 O.2     1  UNL1       -0.2732
      6 N          63.6265   87.0271   13.6756 N.am    1  UNL1       -0.2541
      7 C          62.8390   85.8557   13.1679 C.3     1  UNL1        0.1577
      8 C          61.9869   85.9997   11.9419 C.2     1  UNL1        0.2445
      9 O          61.1993   84.8283   11.4342 O.2     1  UNL1       -0.2731
     10 N          61.9222   87.3149   11.2236 N.am    1  UNL1       -0.2705
     11 C          62.7097   88.4863   11.7313 C.3     1  UNL1        0.1359
     12 C          63.5619   88.3423   12.9574 C.3     1  UNL1        0.1908
     13 N          64.3494   89.5136   13.4651 N.am    1  UNL1       -0.1863
     14 C          64.2847   90.8289   12.7468 C.2     1  UNL1        0.3191
     15 O          63.4326   90.9728   11.5208 O.2     1  UNL1       -0.2512
     16 N          65.0723   92.0003   13.2545 N.am    1  UNL1       -0.2836
     17 H          65.6316   91.9058   14.0591 H       1  UNL1        0.1513
     18 C          65.0076   93.3155   12.5362 C.3     1  UNL1        0.1177
     19 C          65.9662   93.6086   11.4203 C.ar    1  UNL1       -0.0025
     20 C          66.8297   92.5142   10.8665 C.ar    1  UNL1       -0.0026
     21 C          67.7882   92.8073    9.7505 C.ar    1  UNL1       -0.0003
     22 C          67.8832   94.1947    9.1884 C.ar    1  UNL1       -0.0000
     23 C          67.0197   95.2891    9.7422 C.ar    1  UNL1       -0.0003
     24 C          66.0611   94.9961   10.8581 C.ar    1  UNL1       -0.0026
     25 C          62.9037   84.5405   13.8861 C.3     1  UNL1        0.0556
     26 C          62.9170   83.2596   13.1057 C.ar    1  UNL1       -0.0198
     27 C          63.6453   83.1866   11.7964 C.ar    1  UNL1       -0.0011
     28 C          63.6586   81.9057   11.0160 C.ar    1  UNL1        0.0363
     29 C          62.9435   80.6978   11.5448 C.ar    1  UNL1        0.1337
     30 O          62.9568   79.4169   10.7643 O.3     1  UNL1       -0.5055
     31 C          62.2151   80.7708   12.8541 C.ar    1  UNL1        0.0363
     32 C          62.2018   82.0517   13.6345 C.ar    1  UNL1       -0.0011
     33 H          63.4118   79.3713    9.9465 H       1  UNL1        0.2922
     34 C          65.9891   90.5411   15.1988 C.3     1  UNL1        0.1188
     35 C          68.1168   92.0295   15.1121 C.2     1  UNL1       -0.0034
     36 C          67.3275   90.8605   14.6017 C.2     1  UNL1       -0.0071
     37 C          61.1596   88.7025    9.1637 C.ar    1  UNL1        0.0135
     38 C          62.1656   89.7621    9.5029 C.ar    1  UNL1       -0.0012
     39 C          62.2553   91.0057    8.6690 C.ar    1  UNL1       -0.0002
     40 C          61.3388   91.1897    7.4959 C.ar    1  UNL1        0.0016
     41 C          60.3328   90.1300    7.1566 C.ar    1  UNL1        0.0214
     42 C          59.3049   90.0335    6.0685 C.ar    1  UNL1        0.0722
     43 C          58.5800   88.7303    6.2299 C.ar    1  UNL1        0.0805
     44 N          59.1599   88.0214    7.4178 N.ar    1  UNL1       -0.3241
     45 C          58.7317   86.6824    7.9410 C.3     1  UNL1        0.1305
     46 C          60.2432   88.8865    7.9905 C.ar    1  UNL1        0.0577
     47 C          59.0471   91.0601    5.0055 C.2     1  UNL1        0.2510
     48 O          57.6494   91.5413    4.7508 O.2     1  UNL1       -0.2698
     49 N          60.1870   91.6055    4.1974 N.am    1  UNL1       -0.2791
     50 H          61.1044   91.2896    4.3646 H       1  UNL1        0.1552
     51 C          59.9294   92.6320    3.1345 C.ar    1  UNL1        0.0701
     52 C          59.4322   92.2056    1.7850 C.ar    1  UNL1        0.0191
     53 C          59.1745   93.2321    0.7220 C.ar    1  UNL1        0.0356
     54 C          59.4139   94.6849    1.0085 C.ar    1  UNL1        0.1319
     55 N          59.9111   95.1112    2.3580 N.ar    1  UNL1       -0.2279
     56 C          60.1688   94.0847    3.4210 C.ar    1  UNL1        0.1149
     57 N          59.1563   95.7114   -0.0544 N.pl3   1  UNL1       -0.2904
     58 C          60.2815   96.5627   -0.5635 C.3     1  UNL1        0.1095
     59 C          61.6985   96.0874   -0.4363 C.3     1  UNL1        0.0938
     60 N          62.1569   94.8821   -1.2025 N.3     1  UNL1       -0.2712
     61 C          61.6142   94.6150   -2.5752 C.3     1  UNL1        0.0722
     62 C          60.5596   93.5670   -2.7738 C.3     1  UNL1        0.0188
     63 C          63.1580   93.9439   -0.5962 C.3     1  UNL1        0.0722
     64 C          62.8884   93.3217    0.7418 C.3     1  UNL1        0.0188
     65 C          57.7733   95.8866   -0.6084 C.3     1  UNL1        0.1095
     66 C          57.3726   95.1724   -1.8651 C.3     1  UNL1        0.0938
     67 N          55.9559   94.7150   -2.0487 N.3     1  UNL1       -0.2712
     68 C          55.6044   93.2690   -1.8605 C.3     1  UNL1        0.0722
     69 C          56.6657   92.2165   -1.9873 C.3     1  UNL1        0.0188
     70 C          54.8908   95.7036   -2.4203 C.3     1  UNL1        0.0722
     71 C          53.5907   95.7221   -1.6723 C.3     1  UNL1        0.0188
@<TRIPOS>BOND
     1    35    36    2
     2    36    34    1
     3    34     2    1
     4     2     3    1
     5     3     4    1
     6     4     5    2
     7     4     6   am
     8     6     7    1
     9     7    25    1
    10    25    26    1
    11    26    27   ar
    12    27    28   ar
    13    28    29   ar
    14    29    30    1
    15    29    31   ar
    16    31    32   ar
    17     7     8    1
    18     8     9    2
    19     8    10   am
    20    10     1    1
    21     1    37    1
    22    37    38   ar
    23    38    39   ar
    24    39    40   ar
    25    40    41   ar
    26    41    42   ar
    27    42    47    1
    28    47    48    2
    29    47    49   am
    30    49    51    1
    31    51    52   ar
    32    52    53   ar
    33    53    54   ar
    34    54    57    1
    35    57    65    1
    36    65    66    1
    37    66    67    1
    38    67    68    1
    39    68    69    1
    40    67    70    1
    41    70    71    1
    42    57    58    1
    43    58    59    1
    44    59    60    1
    45    60    63    1
    46    63    64    1
    47    60    61    1
    48    61    62    1
    49    54    55   ar
    50    55    56   ar
    51    42    43   ar
    52    43    44   ar
    53    44    45    1
    54    44    46   ar
    55    10    11    1
    56    11    12    1
    57    12    13    1
    58    13    14   am
    59    14    15    2
    60    14    16   am
    61    16    18    1
    62    18    19    1
    63    19    20   ar
    64    20    21   ar
    65    21    22   ar
    66    22    23   ar
    67    23    24   ar
    68    13     2    1
    69    24    19   ar
    70    12     6    1
    71    32    26   ar
    72    46    37   ar
    73    46    41   ar
    74    56    51   ar
    75    30    33    1
    76    49    50    1
    77    16    17    1
