@<TRIPOS>MOLECULE
*****
 34 37 0 0 0
SMALL
GASTEIGER

@<TRIPOS>ATOM
      1 N          62.3394   90.1934   11.1885 N.3     1  UNL1       -0.2689
      2 C          62.7570   91.0311   10.0162 C.3     1  UNL1        0.0741
      3 C          63.9187   91.9715   10.1423 C.3     1  UNL1        0.0375
      4 C          64.6629   92.0744   11.4406 C.3     1  UNL1        0.0800
      5 C          64.2453   91.2368   12.6128 C.3     1  UNL1        0.0375
      6 C          63.0836   90.2963   12.4868 C.3     1  UNL1        0.0741
      7 C          61.1777   89.2530   11.0624 C.3     1  UNL1        0.0991
      8 C          61.2586   85.9780    7.9773 C.ar    1  UNL1        0.0714
      9 C          60.0868   86.9115    8.0495 C.ar    1  UNL1        0.0036
     10 C          60.0598   88.0032    9.0778 C.ar    1  UNL1       -0.0030
     11 C          61.2046   88.1613   10.0340 C.ar    1  UNL1       -0.0062
     12 C          62.3764   87.2277    9.9618 C.ar    1  UNL1       -0.0030
     13 C          62.4034   86.1361    8.9335 C.ar    1  UNL1        0.0036
     14 F          61.3125   83.7946    5.9206 F       1  UNL1       -0.1659
     15 C          61.2855   84.8863    6.9489 C.3     1  UNL1        0.4186
     16 F          62.7825   84.8433    7.0339 F       1  UNL1       -0.1659
     17 F          59.7886   84.9293    6.8640 F       1  UNL1       -0.1659
     18 N          65.8246   93.0149   11.5667 N.pl3   1  UNL1       -0.2872
     19 C          66.7228   92.9409   12.7657 C.ar    1  UNL1        0.0515
     20 C          66.4968   93.8593   13.9299 C.ar    1  UNL1        0.0148
     21 C          67.3950   93.7853   15.1290 C.ar    1  UNL1        0.0051
     22 C          68.5193   92.7928   15.1638 C.ar    1  UNL1        0.0715
     23 C          68.7453   91.8744   13.9996 C.ar    1  UNL1        0.0051
     24 C          67.8470   91.9485   12.8005 C.ar    1  UNL1        0.0148
     25 C          69.4175   92.7188   16.3628 C.3     1  UNL1        0.4186
     26 F          70.3157   92.6448   17.5619 F       1  UNL1       -0.1659
     27 F          68.9190   91.3337   16.6507 F       1  UNL1       -0.1659
     28 F          69.9159   94.1039   16.0749 F       1  UNL1       -0.1659
     29 C          66.0881   94.0294   10.4936 C.ar    1  UNL1        0.0710
     30 C          67.0735   93.7291    9.4033 C.ar    1  UNL1        0.0180
     31 C          67.3370   94.7436    8.3303 C.ar    1  UNL1        0.0220
     32 C          66.6151   96.0584    8.3476 C.ar    1  UNL1        0.0990
     33 N          65.6297   96.3587    9.4380 N.ar    1  UNL1       -0.2410
     34 C          65.3662   95.3442   10.5110 C.ar    1  UNL1        0.1136
@<TRIPOS>BOND
     1    14    15    1
     2    15    16    1
     3    15    17    1
     4    15     8    1
     5     8     9   ar
     6     9    10   ar
     7    10    11   ar
     8    11     7    1
     9     7     1    1
    10     1     2    1
    11     2     3    1
    12     3     4    1
    13     4    18    1
    14    18    19    1
    15    19    20   ar
    16    20    21   ar
    17    21    22   ar
    18    22    25    1
    19    25    26    1
    20    25    27    1
    21    25    28    1
    22    22    23   ar
    23    23    24   ar
    24    18    29    1
    25    29    30   ar
    26    30    31   ar
    27    31    32   ar
    28    32    33   ar
    29    33    34   ar
    30     4     5    1
    31     5     6    1
    32    11    12   ar
    33    12    13   ar
    34    13     8   ar
    35     6     1    1
    36    24    19   ar
    37    34    29   ar
@<TRIPOS>MOLECULE
*****
 34 37 0 0 0
SMALL
GASTEIGER

@<TRIPOS>ATOM
      1 N          63.6433   90.7177   11.9077 N.3     1  UNL1       -0.2689
      2 C          63.7223   89.5482   12.8437 C.3     1  UNL1        0.0741
      3 C          63.1793   88.2142   12.4247 C.3     1  UNL1        0.0375
      4 C          62.5574   88.0496   11.0697 C.3     1  UNL1        0.0800
      5 C          62.4784   89.2190   10.1337 C.3     1  UNL1        0.0375
      6 C          63.0214   90.5531   10.5527 C.3     1  UNL1        0.0741
      7 C          64.1862   92.0517   12.3267 C.3     1  UNL1        0.0991
      8 C          67.7372   92.2709   15.0821 C.ar    1  UNL1        0.0714
      9 C          67.9398   92.2742   13.5959 C.ar    1  UNL1        0.0036
     10 C          66.7562   92.2011   12.6774 C.ar    1  UNL1       -0.0030
     11 C          65.3699   92.1247   13.2452 C.ar    1  UNL1       -0.0062
     12 C          65.1673   92.1215   14.7314 C.ar    1  UNL1       -0.0030
     13 C          66.3510   92.1945   15.6499 C.ar    1  UNL1        0.0036
     14 F          70.1046   92.4170   16.9191 F       1  UNL1       -0.1659
     15 C          68.9209   92.3440   16.0006 C.3     1  UNL1        0.4186
     16 F          69.7971   92.7172   14.8417 F       1  UNL1       -0.1659
     17 F          68.0447   91.9708   17.1595 F       1  UNL1       -0.1659
     18 N          62.0144   86.7155   10.6507 N.pl3   1  UNL1       -0.2872
     19 C          62.4599   85.4692   11.3566 C.ar    1  UNL1        0.0515
     20 C          62.1646   85.2876   12.8160 C.ar    1  UNL1        0.0148
     21 C          62.6101   84.0413   13.5219 C.ar    1  UNL1        0.0051
     22 C          63.3508   82.9766   12.7683 C.ar    1  UNL1        0.0715
     23 C          63.6461   83.1582   11.3089 C.ar    1  UNL1        0.0051
     24 C          63.2006   84.4046   10.6031 C.ar    1  UNL1        0.0148
     25 C          63.7963   81.7303   13.4742 C.3     1  UNL1        0.4186
     26 F          64.2417   80.4840   14.1801 F       1  UNL1       -0.1659
     27 F          64.1880   82.5473   14.6696 F       1  UNL1       -0.1659
     28 F          63.4045   80.9132   12.2789 F       1  UNL1       -0.1659
     29 C          61.0260   86.6278    9.5258 C.ar    1  UNL1        0.0710
     30 C          61.3711   85.8636    8.2821 C.ar    1  UNL1        0.0180
     31 C          60.3827   85.7758    7.1572 C.ar    1  UNL1        0.0220
     32 C          59.0492   86.4524    7.2761 C.ar    1  UNL1        0.0990
     33 N          58.7041   87.2167    8.5198 N.ar    1  UNL1       -0.2410
     34 C          59.6925   87.3044    9.6447 C.ar    1  UNL1        0.1136
@<TRIPOS>BOND
     1    14    15    1
     2    15    16    1
     3    15    17    1
     4    15     8    1
     5     8     9   ar
     6     9    10   ar
     7    10    11   ar
     8    11     7    1
     9     7     1    1
    10     1     2    1
    11     2     3    1
    12     3     4    1
    13     4    18    1
    14    18    19    1
    15    19    20   ar
    16    20    21   ar
    17    21    22   ar
    18    22    25    1
    19    25    26    1
    20    25    27    1
    21    25    28    1
    22    22    23   ar
    23    23    24   ar
    24    18    29    1
    25    29    30   ar
    26    30    31   ar
    27    31    32   ar
    28    32    33   ar
    29    33    34   ar
    30     4     5    1
    31     5     6    1
    32    11    12   ar
    33    12    13   ar
    34    13     8   ar
    35     6     1    1
    36    24    19   ar
    37    34    29   ar
@<TRIPOS>MOLECULE
*****
 34 37 0 0 0
SMALL
GASTEIGER

@<TRIPOS>ATOM
      1 N          64.0393   90.4223   12.7492 N.3     1  UNL1       -0.2689
      2 C          63.2660   90.4789   11.4651 C.3     1  UNL1        0.0741
      3 C          62.6209   89.2381   10.9227 C.3     1  UNL1        0.0375
      4 C          62.7491   87.9406   11.6643 C.3     1  UNL1        0.0800
      5 C          63.5223   87.8839   12.9484 C.3     1  UNL1        0.0375
      6 C          64.1675   89.1247   13.4908 C.3     1  UNL1        0.0741
      7 C          64.6844   91.6631   13.2916 C.3     1  UNL1        0.0991
      8 C          66.6042   94.6114   10.4860 C.ar    1  UNL1        0.0714
      9 C          66.5844   94.8832   11.9610 C.ar    1  UNL1        0.0036
     10 C          65.9444   93.9004   12.8962 C.ar    1  UNL1       -0.0030
     11 C          65.3243   92.6458   12.3564 C.ar    1  UNL1       -0.0062
     12 C          65.3441   92.3740   10.8814 C.ar    1  UNL1       -0.0030
     13 C          65.9841   93.3568    9.9462 C.ar    1  UNL1        0.0036
     14 F          67.8841   96.5770    8.6155 F       1  UNL1       -0.1659
     15 C          67.2441   95.5942    9.5508 C.3     1  UNL1        0.4186
     16 F          67.4533   94.5011    8.5451 F       1  UNL1       -0.1659
     17 F          67.0350   96.6873   10.5564 F       1  UNL1       -0.1659
     18 N          62.1039   86.6998   11.1219 N.pl3   1  UNL1       -0.2872
     19 C          62.4121   85.3654   11.7337 C.ar    1  UNL1        0.0515
     20 C          62.2069   85.1490   13.2038 C.ar    1  UNL1        0.0148
     21 C          62.5150   83.8146   13.8156 C.ar    1  UNL1        0.0051
     22 C          63.0285   82.6965   12.9574 C.ar    1  UNL1        0.0715
     23 C          63.2337   82.9130   11.4874 C.ar    1  UNL1        0.0051
     24 C          62.9255   84.2474   10.8755 C.ar    1  UNL1        0.0148
     25 C          63.3366   81.3622   13.5693 C.3     1  UNL1        0.4186
     26 F          63.6448   80.0278   14.1811 F       1  UNL1       -0.1659
     27 F          64.7081   81.4010   12.9631 F       1  UNL1       -0.1659
     28 F          61.9651   81.3234   14.1754 F       1  UNL1       -0.1659
     29 C          61.1506   86.7934    9.9676 C.ar    1  UNL1        0.0710
     30 C          61.4203   86.0249    8.7079 C.ar    1  UNL1        0.0180
     31 C          60.4670   86.1186    7.5536 C.ar    1  UNL1        0.0220
     32 C          59.2440   86.9807    7.6589 C.ar    1  UNL1        0.0990
     33 N          58.9743   87.7492    8.9186 N.ar    1  UNL1       -0.2410
     34 C          59.9276   87.6556   10.0729 C.ar    1  UNL1        0.1136
@<TRIPOS>BOND
     1    14    15    1
     2    15    16    1
     3    15    17    1
     4    15     8    1
     5     8     9   ar
     6     9    10   ar
     7    10    11   ar
     8    11     7    1
     9     7     1    1
    10     1     2    1
    11     2     3    1
    12     3     4    1
    13     4    18    1
    14    18    19    1
    15    19    20   ar
    16    20    21   ar
    17    21    22   ar
    18    22    25    1
    19    25    26    1
    20    25    27    1
    21    25    28    1
    22    22    23   ar
    23    23    24   ar
    24    18    29    1
    25    29    30   ar
    26    30    31   ar
    27    31    32   ar
    28    32    33   ar
    29    33    34   ar
    30     4     5    1
    31     5     6    1
    32    11    12   ar
    33    12    13   ar
    34    13     8   ar
    35     6     1    1
    36    24    19   ar
    37    34    29   ar
@<TRIPOS>MOLECULE
*****
 34 37 0 0 0
SMALL
GASTEIGER

@<TRIPOS>ATOM
      1 N          62.6920   89.8592   11.0680 N.3     1  UNL1       -0.2689
      2 C          63.4225   89.9841   12.3722 C.3     1  UNL1        0.0741
      3 C          64.4730   91.0407   12.5452 C.3     1  UNL1        0.0375
      4 C          64.7931   91.9725   11.4142 C.3     1  UNL1        0.0800
      5 C          64.0626   91.8477   10.1100 C.3     1  UNL1        0.0375
      6 C          63.0120   90.7911    9.9369 C.3     1  UNL1        0.0741
      7 C          61.6415   88.8026   10.8949 C.3     1  UNL1        0.0991
      8 C          62.8309   84.4717   10.6146 C.ar    1  UNL1        0.0714
      9 C          62.6395   85.1115   11.9577 C.ar    1  UNL1        0.0036
     10 C          62.2430   86.5552   12.0511 C.ar    1  UNL1       -0.0030
     11 C          62.0380   87.3590   10.8015 C.ar    1  UNL1       -0.0062
     12 C          62.2294   86.7192    9.4584 C.ar    1  UNL1       -0.0030
     13 C          62.6259   85.2756    9.3649 C.ar    1  UNL1        0.0036
     14 F          63.6239   81.5845   10.4278 F       1  UNL1       -0.1659
     15 C          63.2274   83.0281   10.5212 C.3     1  UNL1        0.4186
     16 F          64.1669   83.3587    9.3996 F       1  UNL1       -0.1659
     17 F          62.2879   82.6975   11.6428 F       1  UNL1       -0.1659
     18 N          65.8436   93.0291   11.5873 N.pl3   1  UNL1       -0.2872
     19 C          66.7481   92.9985   12.7835 C.ar    1  UNL1        0.0515
     20 C          67.9076   92.0477   12.8229 C.ar    1  UNL1        0.0148
     21 C          68.8121   92.0171   14.0191 C.ar    1  UNL1        0.0051
     22 C          68.5572   92.9374   15.1759 C.ar    1  UNL1        0.0715
     23 C          67.3977   93.8883   15.1365 C.ar    1  UNL1        0.0051
     24 C          66.4932   93.9188   13.9402 C.ar    1  UNL1        0.0148
     25 C          69.4617   92.9068   16.3721 C.3     1  UNL1        0.4186
     26 F          70.3662   92.8762   17.5683 F       1  UNL1       -0.1659
     27 F          68.8250   91.6249   16.8207 F       1  UNL1       -0.1659
     28 F          70.0983   94.1887   15.9235 F       1  UNL1       -0.1659
     29 C          65.9896   94.1163   10.5642 C.ar    1  UNL1        0.0710
     30 C          66.9262   93.9359    9.4065 C.ar    1  UNL1        0.0180
     31 C          67.0722   95.0230    8.3834 C.ar    1  UNL1        0.0220
     32 C          66.2816   96.2906    8.5180 C.ar    1  UNL1        0.0990
     33 N          65.3450   96.4711    9.6757 N.ar    1  UNL1       -0.2410
     34 C          65.1990   95.3839   10.6988 C.ar    1  UNL1        0.1136
@<TRIPOS>BOND
     1    14    15    1
     2    15    16    1
     3    15    17    1
     4    15     8    1
     5     8     9   ar
     6     9    10   ar
     7    10    11   ar
     8    11     7    1
     9     7     1    1
    10     1     2    1
    11     2     3    1
    12     3     4    1
    13     4    18    1
    14    18    19    1
    15    19    20   ar
    16    20    21   ar
    17    21    22   ar
    18    22    25    1
    19    25    26    1
    20    25    27    1
    21    25    28    1
    22    22    23   ar
    23    23    24   ar
    24    18    29    1
    25    29    30   ar
    26    30    31   ar
    27    31    32   ar
    28    32    33   ar
    29    33    34   ar
    30     4     5    1
    31     5     6    1
    32    11    12   ar
    33    12    13   ar
    34    13     8   ar
    35     6     1    1
    36    24    19   ar
    37    34    29   ar
@<TRIPOS>MOLECULE
*****
 34 37 0 0 0
SMALL
GASTEIGER

@<TRIPOS>ATOM
      1 N          63.9389   89.5629   13.5405 N.3     1  UNL1       -0.2689
      2 C          63.1372   89.4163   12.2812 C.3     1  UNL1        0.0741
      3 C          62.7898   88.0504   11.7680 C.3     1  UNL1        0.0375
      4 C          63.2441   86.8309   12.5140 C.3     1  UNL1        0.0800
      5 C          64.0458   86.9775   13.7733 C.3     1  UNL1        0.0375
      6 C          64.3932   88.3435   14.2866 C.3     1  UNL1        0.0741
      7 C          64.2863   90.9289   14.0538 C.3     1  UNL1        0.0991
      8 C          66.2777   93.9137   11.3380 C.ar    1  UNL1        0.0714
      9 C          65.2727   92.9483   10.7829 C.ar    1  UNL1        0.0036
     10 C          64.6090   91.9534   11.6881 C.ar    1  UNL1       -0.0030
     11 C          64.9501   91.9238   13.1485 C.ar    1  UNL1       -0.0062
     12 C          65.9550   92.8892   13.7036 C.ar    1  UNL1       -0.0030
     13 C          66.6188   93.8841   12.7984 C.ar    1  UNL1        0.0036
     14 F          67.6052   95.9035    9.5275 F       1  UNL1       -0.1659
     15 C          66.9414   94.9086   10.4327 C.3     1  UNL1        0.4186
     16 F          66.4686   96.0262   11.3144 F       1  UNL1       -0.1659
     17 F          67.4142   93.7910    9.5511 F       1  UNL1       -0.1659
     18 N          62.8967   85.4649   12.0007 N.pl3   1  UNL1       -0.2872
     19 C          62.5899   85.2660   10.5460 C.ar    1  UNL1        0.0515
     20 C          61.3332   85.8377    9.9595 C.ar    1  UNL1        0.0148
     21 C          61.0264   85.6388    8.5048 C.ar    1  UNL1        0.0051
     22 C          61.9763   84.8681    7.6365 C.ar    1  UNL1        0.0715
     23 C          63.2329   84.2964    8.2230 C.ar    1  UNL1        0.0051
     24 C          63.5397   84.4954    9.6778 C.ar    1  UNL1        0.0148
     25 C          61.6695   84.6692    6.1818 C.3     1  UNL1        0.4186
     26 F          61.3626   84.4703    4.7271 F       1  UNL1       -0.1659
     27 F          60.2176   84.9320    6.4521 F       1  UNL1       -0.1659
     28 F          63.1213   84.4064    5.9115 F       1  UNL1       -0.1659
     29 C          62.8562   84.2979   12.9422 C.ar    1  UNL1        0.0710
     30 C          63.5603   83.0222   12.5862 C.ar    1  UNL1        0.0180
     31 C          63.5198   81.8552   13.5277 C.ar    1  UNL1        0.0220
     32 C          62.7751   81.9638   14.8252 C.ar    1  UNL1        0.0990
     33 N          62.0708   83.2396   15.1812 N.ar    1  UNL1       -0.2410
     34 C          62.1114   84.4066   14.2397 C.ar    1  UNL1        0.1136
@<TRIPOS>BOND
     1    14    15    1
     2    15    16    1
     3    15    17    1
     4    15     8    1
     5     8     9   ar
     6     9    10   ar
     7    10    11   ar
     8    11     7    1
     9     7     1    1
    10     1     2    1
    11     2     3    1
    12     3     4    1
    13     4    18    1
    14    18    19    1
    15    19    20   ar
    16    20    21   ar
    17    21    22   ar
    18    22    25    1
    19    25    26    1
    20    25    27    1
    21    25    28    1
    22    22    23   ar
    23    23    24   ar
    24    18    29    1
    25    29    30   ar
    26    30    31   ar
    27    31    32   ar
    28    32    33   ar
    29    33    34   ar
    30     4     5    1
    31     5     6    1
    32    11    12   ar
    33    12    13   ar
    34    13     8   ar
    35     6     1    1
    36    24    19   ar
    37    34    29   ar
@<TRIPOS>MOLECULE
*****
 34 37 0 0 0
SMALL
GASTEIGER

@<TRIPOS>ATOM
      1 N          63.1860   89.8878   12.8482 N.3     1  UNL1       -0.2689
      2 C          62.2785   89.6060   11.6875 C.3     1  UNL1        0.0741
      3 C          62.0765   88.1956   11.2185 C.3     1  UNL1        0.0375
      4 C          62.7819   87.0669   11.9102 C.3     1  UNL1        0.0800
      5 C          63.6893   87.3486   13.0709 C.3     1  UNL1        0.0375
      6 C          63.8914   88.7591   13.5399 C.3     1  UNL1        0.0741
      7 C          63.3880   91.2981   13.3172 C.3     1  UNL1        0.0991
      8 C          67.4212   92.6147   14.8171 C.ar    1  UNL1        0.0714
      9 C          67.1728   92.4915   13.3430 C.ar    1  UNL1        0.0036
     10 C          65.8284   92.0526   12.8430 C.ar    1  UNL1       -0.0030
     11 C          64.7324   91.7370   13.8172 C.ar    1  UNL1       -0.0062
     12 C          64.9807   91.8602   15.2913 C.ar    1  UNL1       -0.0030
     13 C          66.3251   92.2990   15.7913 C.ar    1  UNL1        0.0036
     14 F          70.1100   93.4923   15.8171 F       1  UNL1       -0.1659
     15 C          68.7656   93.0535   15.3171 C.3     1  UNL1        0.4186
     16 F          68.1028   93.8396   16.4093 F       1  UNL1       -0.1659
     17 F          69.4284   92.2674   14.2250 F       1  UNL1       -0.1659
     18 N          62.5798   85.6565   11.4412 N.pl3   1  UNL1       -0.2872
     19 C          62.3835   85.3724    9.9815 C.ar    1  UNL1        0.0515
     20 C          63.4377   84.6321    9.2131 C.ar    1  UNL1        0.0148
     21 C          63.2414   84.3480    7.7534 C.ar    1  UNL1        0.0051
     22 C          61.9907   84.8041    7.0621 C.ar    1  UNL1        0.0715
     23 C          60.9365   85.5444    7.8306 C.ar    1  UNL1        0.0051
     24 C          61.1329   85.8285    9.2903 C.ar    1  UNL1        0.0148
     25 C          61.7944   84.5200    5.6024 C.3     1  UNL1        0.4186
     26 F          61.5980   84.2359    4.1428 F       1  UNL1       -0.1659
     27 F          63.1917   84.9884    5.3233 F       1  UNL1       -0.1659
     28 F          60.3970   84.0516    5.8816 F       1  UNL1       -0.1659
     29 C          62.5742   84.5302   12.4319 C.ar    1  UNL1        0.0710
     30 C          62.6645   83.1111   11.9547 C.ar    1  UNL1        0.0180
     31 C          62.6588   81.9848   12.9454 C.ar    1  UNL1        0.0220
     32 C          62.5628   82.2777   14.4133 C.ar    1  UNL1        0.0990
     33 N          62.4724   83.6969   14.8906 N.ar    1  UNL1       -0.2410
     34 C          62.4781   84.8232   13.8999 C.ar    1  UNL1        0.1136
@<TRIPOS>BOND
     1    14    15    1
     2    15    16    1
     3    15    17    1
     4    15     8    1
     5     8     9   ar
     6     9    10   ar
     7    10    11   ar
     8    11     7    1
     9     7     1    1
    10     1     2    1
    11     2     3    1
    12     3     4    1
    13     4    18    1
    14    18    19    1
    15    19    20   ar
    16    20    21   ar
    17    21    22   ar
    18    22    25    1
    19    25    26    1
    20    25    27    1
    21    25    28    1
    22    22    23   ar
    23    23    24   ar
    24    18    29    1
    25    29    30   ar
    26    30    31   ar
    27    31    32   ar
    28    32    33   ar
    29    33    34   ar
    30     4     5    1
    31     5     6    1
    32    11    12   ar
    33    12    13   ar
    34    13     8   ar
    35     6     1    1
    36    24    19   ar
    37    34    29   ar
@<TRIPOS>MOLECULE
*****
 34 37 0 0 0
SMALL
GASTEIGER

@<TRIPOS>ATOM
      1 N          59.5130   88.3940    7.9553 N.3     1  UNL1       -0.2689
      2 C          60.0831   89.3688    8.9427 C.3     1  UNL1        0.0741
      3 C          61.0371   88.8951    9.9988 C.3     1  UNL1        0.0375
      4 C          61.4210   87.4466   10.0676 C.3     1  UNL1        0.0800
      5 C          60.8509   86.4719    9.0803 C.3     1  UNL1        0.0375
      6 C          59.8969   86.9456    8.0241 C.3     1  UNL1        0.0741
      7 C          58.5590   88.8677    6.8991 C.3     1  UNL1        0.0991
      8 C          59.7580   92.1898    4.1105 C.ar    1  UNL1        0.0714
      9 C          60.7999   91.2661    4.6684 C.ar    1  UNL1        0.0036
     10 C          60.4002   90.1588    5.5979 C.ar    1  UNL1       -0.0030
     11 C          58.9587   89.9751    5.9696 C.ar    1  UNL1       -0.0062
     12 C          57.9168   90.8988    5.4117 C.ar    1  UNL1       -0.0030
     13 C          58.3165   92.0062    4.4822 C.ar    1  UNL1        0.0036
     14 F          60.5573   94.4045    2.2515 F       1  UNL1       -0.1659
     15 C          60.1576   93.2972    3.1810 C.3     1  UNL1        0.4186
     16 F          59.6321   94.3069    4.1579 F       1  UNL1       -0.1659
     17 F          60.6832   92.2875    2.2041 F       1  UNL1       -0.1659
     18 N          62.3750   86.9730   11.1238 N.pl3   1  UNL1       -0.2872
     19 C          63.0122   87.9602   12.0562 C.ar    1  UNL1        0.0515
     20 C          63.6416   87.4876   13.3331 C.ar    1  UNL1        0.0148
     21 C          64.2788   88.4748   14.2654 C.ar    1  UNL1        0.0051
     22 C          64.2867   89.9347   13.9209 C.ar    1  UNL1        0.0715
     23 C          63.6573   90.4073   12.6439 C.ar    1  UNL1        0.0051
     24 C          63.0201   89.4200   11.7116 C.ar    1  UNL1        0.0148
     25 C          64.9239   90.9220   14.8532 C.3     1  UNL1        0.4186
     26 F          65.5611   91.9092   15.7855 F       1  UNL1       -0.1659
     27 F          63.8122   90.7098   15.8376 F       1  UNL1       -0.1659
     28 F          66.0356   91.1341   13.8688 F       1  UNL1       -0.1659
     29 C          62.6918   85.5120   11.2476 C.ar    1  UNL1        0.0710
     30 C          63.3333   84.7841   10.1037 C.ar    1  UNL1        0.0180
     31 C          63.6501   83.3232   10.2275 C.ar    1  UNL1        0.0220
     32 C          63.3254   82.5902   11.4952 C.ar    1  UNL1        0.0990
     33 N          62.6839   83.3181   12.6392 N.ar    1  UNL1       -0.2410
     34 C          62.3671   84.7790   12.5154 C.ar    1  UNL1        0.1136
@<TRIPOS>BOND
     1    14    15    1
     2    15    16    1
     3    15    17    1
     4    15     8    1
     5     8     9   ar
     6     9    10   ar
     7    10    11   ar
     8    11     7    1
     9     7     1    1
    10     1     2    1
    11     2     3    1
    12     3     4    1
    13     4    18    1
    14    18    19    1
    15    19    20   ar
    16    20    21   ar
    17    21    22   ar
    18    22    25    1
    19    25    26    1
    20    25    27    1
    21    25    28    1
    22    22    23   ar
    23    23    24   ar
    24    18    29    1
    25    29    30   ar
    26    30    31   ar
    27    31    32   ar
    28    32    33   ar
    29    33    34   ar
    30     4     5    1
    31     5     6    1
    32    11    12   ar
    33    12    13   ar
    34    13     8   ar
    35     6     1    1
    36    24    19   ar
    37    34    29   ar
@<TRIPOS>MOLECULE
*****
 34 37 0 0 0
SMALL
GASTEIGER

@<TRIPOS>ATOM
      1 N          59.5059   88.3762    7.9555 N.3     1  UNL1       -0.2689
      2 C          60.1008   89.3521    8.9270 C.3     1  UNL1        0.0741
      3 C          61.0545   88.8738    9.9814 C.3     1  UNL1        0.0375
      4 C          61.4133   87.4197   10.0644 C.3     1  UNL1        0.0800
      5 C          60.8184   86.4439    9.0929 C.3     1  UNL1        0.0375
      6 C          59.8647   86.9221    8.0385 C.3     1  UNL1        0.0741
      7 C          58.5522   88.8544    6.9011 C.3     1  UNL1        0.0991
      8 C          59.7557   92.1818    4.1209 C.ar    1  UNL1        0.0714
      9 C          58.3128   91.9934    4.4847 C.ar    1  UNL1        0.0036
     10 C          57.9116   90.8842    5.4114 C.ar    1  UNL1       -0.0030
     11 C          58.9534   89.9635    5.9744 C.ar    1  UNL1       -0.0062
     12 C          60.3963   90.1519    5.6106 C.ar    1  UNL1       -0.0030
     13 C          60.7974   91.2611    4.6838 C.ar    1  UNL1        0.0036
     14 F          60.5580   94.4001    2.2673 F       1  UNL1       -0.1659
     15 C          60.1568   93.2909    3.1941 C.3     1  UNL1        0.4186
     16 F          59.6177   94.2981    4.1661 F       1  UNL1       -0.1659
     17 F          60.6959   92.2837    2.2220 F       1  UNL1       -0.1659
     18 N          62.3670   86.9415   11.1188 N.pl3   1  UNL1       -0.2872
     19 C          63.0026   87.9246   12.0567 C.ar    1  UNL1        0.0515
     20 C          63.0021   89.3871   11.7236 C.ar    1  UNL1        0.0148
     21 C          63.6376   90.3701   12.6615 C.ar    1  UNL1        0.0051
     22 C          64.2737   89.8906   13.9326 C.ar    1  UNL1        0.0715
     23 C          64.2742   88.4281   14.2657 C.ar    1  UNL1        0.0051
     24 C          63.6386   87.4450   13.3277 C.ar    1  UNL1        0.0148
     25 C          64.9092   90.8736   14.8705 C.3     1  UNL1        0.4186
     26 F          65.5448   91.8566   15.8084 F       1  UNL1       -0.1659
     27 F          63.8142   90.6313   15.8665 F       1  UNL1       -0.1659
     28 F          66.0043   91.1159   13.8745 F       1  UNL1       -0.1659
     29 C          62.6851   85.4803   11.2353 C.ar    1  UNL1        0.0710
     30 C          63.3393   84.7617   10.0926 C.ar    1  UNL1        0.0180
     31 C          63.6574   83.3005   10.2091 C.ar    1  UNL1        0.0220
     32 C          63.3214   82.5578   11.4682 C.ar    1  UNL1        0.0990
     33 N          62.6672   83.2764   12.6110 N.ar    1  UNL1       -0.2410
     34 C          62.3491   84.7376   12.4945 C.ar    1  UNL1        0.1136
@<TRIPOS>BOND
     1    14    15    1
     2    15    16    1
     3    15    17    1
     4    15     8    1
     5     8     9   ar
     6     9    10   ar
     7    10    11   ar
     8    11     7    1
     9     7     1    1
    10     1     2    1
    11     2     3    1
    12     3     4    1
    13     4    18    1
    14    18    19    1
    15    19    20   ar
    16    20    21   ar
    17    21    22   ar
    18    22    25    1
    19    25    26    1
    20    25    27    1
    21    25    28    1
    22    22    23   ar
    23    23    24   ar
    24    18    29    1
    25    29    30   ar
    26    30    31   ar
    27    31    32   ar
    28    32    33   ar
    29    33    34   ar
    30     4     5    1
    31     5     6    1
    32    11    12   ar
    33    12    13   ar
    34    13     8   ar
    35     6     1    1
    36    24    19   ar
    37    34    29   ar
@<TRIPOS>MOLECULE
*****
 34 37 0 0 0
SMALL
GASTEIGER

@<TRIPOS>ATOM
      1 N          59.7717   88.5913    8.1677 N.3     1  UNL1       -0.2689
      2 C          59.8520   89.5466    9.3214 C.3     1  UNL1        0.0741
      3 C          60.7940   89.2742   10.4565 C.3     1  UNL1        0.0375
      4 C          61.6556   88.0465   10.4380 C.3     1  UNL1        0.0800
      5 C          61.5753   87.0912    9.2844 C.3     1  UNL1        0.0375
      6 C          60.6333   87.3636    8.1492 C.3     1  UNL1        0.0741
      7 C          58.8297   88.8636    7.0326 C.3     1  UNL1        0.0991
      8 C          59.7169   92.1751    4.1177 C.ar    1  UNL1        0.0714
      9 C          58.3040   91.9127    4.5474 C.ar    1  UNL1        0.0036
     10 C          58.0083   90.8089    5.5190 C.ar    1  UNL1       -0.0030
     11 C          59.1255   89.9675    6.0610 C.ar    1  UNL1       -0.0062
     12 C          60.5384   90.2299    5.6313 C.ar    1  UNL1       -0.0030
     13 C          60.8341   91.3337    4.6596 C.ar    1  UNL1        0.0036
     14 F          60.3084   94.3828    2.1744 F       1  UNL1       -0.1659
     15 C          60.0127   93.2790    3.1460 C.3     1  UNL1        0.4186
     16 F          60.4246   92.2654    2.1199 F       1  UNL1       -0.1659
     17 F          59.6007   94.2926    4.1722 F       1  UNL1       -0.1659
     18 N          62.5976   87.7742   11.5732 N.pl3   1  UNL1       -0.2872
     19 C          62.8549   86.3632   12.0122 C.ar    1  UNL1        0.0515
     20 C          62.4135   85.2173   11.1507 C.ar    1  UNL1        0.0148
     21 C          62.6708   83.8063   11.5897 C.ar    1  UNL1        0.0051
     22 C          63.3695   83.5411   12.8903 C.ar    1  UNL1        0.0715
     23 C          63.8109   84.6870   13.7519 C.ar    1  UNL1        0.0051
     24 C          63.5536   86.0980   13.3128 C.ar    1  UNL1        0.0148
     25 C          63.6268   82.1301   13.3294 C.3     1  UNL1        0.4186
     26 F          63.8841   80.7191   13.7684 F       1  UNL1       -0.1659
     27 F          63.2068   81.6330   11.9779 F       1  UNL1       -0.1659
     28 F          64.0469   82.6272   14.6808 F       1  UNL1       -0.1659
     29 C          63.2822   88.9129   12.2693 C.ar    1  UNL1        0.0710
     30 C          63.8780   88.7103   13.6308 C.ar    1  UNL1        0.0180
     31 C          64.5627   89.8491   14.3269 C.ar    1  UNL1        0.0220
     32 C          64.6515   91.1904   13.6615 C.ar    1  UNL1        0.0990
     33 N          64.0557   91.3931   12.2998 N.ar    1  UNL1       -0.2410
     34 C          63.3710   90.2543   11.6037 C.ar    1  UNL1        0.1136
@<TRIPOS>BOND
     1    14    15    1
     2    15    16    1
     3    15    17    1
     4    15     8    1
     5     8     9   ar
     6     9    10   ar
     7    10    11   ar
     8    11     7    1
     9     7     1    1
    10     1     2    1
    11     2     3    1
    12     3     4    1
    13     4    18    1
    14    18    19    1
    15    19    20   ar
    16    20    21   ar
    17    21    22   ar
    18    22    25    1
    19    25    26    1
    20    25    27    1
    21    25    28    1
    22    22    23   ar
    23    23    24   ar
    24    18    29    1
    25    29    30   ar
    26    30    31   ar
    27    31    32   ar
    28    32    33   ar
    29    33    34   ar
    30     4     5    1
    31     5     6    1
    32    11    12   ar
    33    12    13   ar
    34    13     8   ar
    35     6     1    1
    36    24    19   ar
    37    34    29   ar
