@<TRIPOS>MOLECULE
*****
 22 24 0 0 0
SMALL
GASTEIGER

@<TRIPOS>ATOM
      1 C          66.3786   92.3698   14.9184 C.2     1  UNL1        0.3481
      2 N          66.4480   93.1538   13.6415 N.2     1  UNL1       -0.0461
      3 C          65.5676   92.7833   12.4851 C.3     1  UNL1        0.3004
      4 C          64.6176   91.6286   12.6055 C.2     1  UNL1        0.0911
      5 C          63.7371   91.2580   11.4490 C.2     1  UNL1        0.0231
      6 C          62.7872   90.1035   11.5695 C.2     1  UNL1        0.0890
      7 N          62.7178   89.3195   12.8464 N.am    1  UNL1       -0.1710
      8 C          63.5982   89.6900   14.0029 C.2     1  UNL1        0.3121
      9 O          63.5288   88.9060   15.2798 O.2     1  UNL1       -0.2639
     10 C          64.5481   90.8446   13.8824 C.2     1  UNL1        0.2494
     11 N          65.4286   91.2153   15.0389 N.2     1  UNL1       -0.0343
     12 C          68.7268   92.4347   16.0281 C.3     1  UNL1        0.0136
     13 C          67.2591   92.7405   16.0749 C.3     1  UNL1        0.1234
     14 N          65.6370   93.5673   11.2081 N.3     1  UNL1       -0.2536
     15 H          64.9382   94.2280   10.9975 H       1  UNL1        0.1274
     16 C          66.7712   93.3447   10.2521 C.3     1  UNL1        0.0718
     17 C          67.7016   92.1681   10.2466 C.3     1  UNL1        0.0169
     18 C          68.6796   92.3558    9.1248 C.3     1  UNL1        0.0025
     19 C          68.3535   93.6484    8.4370 C.3     1  UNL1        0.0165
     20 C          67.1741   94.2595    9.1338 C.3     1  UNL1        0.1058
     21 C          66.5135   95.5576    8.7751 C.1     1  UNL1        0.0734
     22 N          65.8530   96.8557    8.4165 N.1     1  UNL1       -0.1958
@<TRIPOS>BOND
     1    12    13    1
     2    13     1    1
     3     1     2    2
     4     2     3    1
     5     3    14    1
     6    16    14    1
     7    16    17    1
     8    17    18    1
     9    18    19    1
    10    19    20    1
    11    20    21    1
    12    21    22    3
    13     3     4    1
    14     4     5    2
    15     5     6    1
    16     6     7    2
    17     7     8    1
    18     8     9    2
    19     8    10    1
    20    10    11    2
    21    11     1    1
    22    20    16    1
    23    10     4    1
    24    14    15    1
@<TRIPOS>MOLECULE
*****
 22 24 0 0 0
SMALL
GASTEIGER

@<TRIPOS>ATOM
      1 C          66.6526   92.8454   14.7207 C.2     1  UNL1        0.3481
      2 N          66.7242   93.0708   13.2395 N.2     1  UNL1       -0.0461
      3 C          65.7169   92.4272   12.3334 C.3     1  UNL1        0.3004
      4 C          64.6380   91.5581   12.9085 C.2     1  UNL1        0.0911
      5 C          63.6307   90.9145   12.0023 C.2     1  UNL1        0.0231
      6 C          62.5519   90.0454   12.5774 C.2     1  UNL1        0.0890
      7 N          62.4803   89.8200   14.0587 N.am    1  UNL1       -0.1710
      8 C          63.4875   90.4637   14.9648 C.2     1  UNL1        0.3121
      9 O          63.4159   90.2383   16.4460 O.2     1  UNL1       -0.2639
     10 C          64.5664   91.3327   14.3897 C.2     1  UNL1        0.2494
     11 N          65.5737   91.9764   15.2958 N.2     1  UNL1       -0.0343
     12 C          68.8722   92.7222   16.0655 C.3     1  UNL1        0.0136
     13 C          67.6600   93.4891   15.6269 C.3     1  UNL1        0.1234
     14 N          65.7885   92.6526   10.8521 N.3     1  UNL1       -0.2536
     15 H          65.5001   91.9444   10.2319 H       1  UNL1        0.1274
     16 C          66.2996   93.9568   10.3158 C.3     1  UNL1        0.0718
     17 C          65.7583   95.3171   10.6423 C.3     1  UNL1        0.0169
     18 C          66.5658   96.3308    9.8871 C.3     1  UNL1        0.0025
     19 C          67.6062   95.5969    9.0938 C.3     1  UNL1        0.0165
     20 C          67.4416   94.1297    9.3588 C.3     1  UNL1        0.1058
     21 C          68.2731   93.0288    8.7701 C.1     1  UNL1        0.0734
     22 N          69.1046   91.9279    8.1815 N.1     1  UNL1       -0.1958
@<TRIPOS>BOND
     1    12    13    1
     2    13     1    1
     3     1     2    2
     4     2     3    1
     5     3    14    1
     6    16    14    1
     7    16    17    1
     8    17    18    1
     9    18    19    1
    10    19    20    1
    11    20    21    1
    12    21    22    3
    13     3     4    1
    14     4     5    2
    15     5     6    1
    16     6     7    2
    17     7     8    1
    18     8     9    2
    19     8    10    1
    20    10    11    2
    21    11     1    1
    22    20    16    1
    23    10     4    1
    24    14    15    1
@<TRIPOS>MOLECULE
*****
 22 24 0 0 0
SMALL
GASTEIGER

@<TRIPOS>ATOM
      1 C          62.3081   85.5903   11.0389 C.2     1  UNL1        0.3481
      2 N          62.3172   86.8895   11.7885 N.2     1  UNL1       -0.0461
      3 C          61.6159   88.0878   11.2210 C.3     1  UNL1        0.3004
      4 C          60.9053   87.9869    9.9038 C.2     1  UNL1        0.0911
      5 C          60.2040   89.1853    9.3363 C.2     1  UNL1        0.0231
      6 C          59.4935   89.0844    8.0191 C.2     1  UNL1        0.0890
      7 N          59.4844   87.7852    7.2695 N.am    1  UNL1       -0.1710
      8 C          60.1857   86.5869    7.8370 C.2     1  UNL1        0.3121
      9 O          60.1766   85.2877    7.0873 O.2     1  UNL1       -0.2639
     10 C          60.8962   86.6878    9.1541 C.2     1  UNL1        0.2494
     11 N          61.5976   85.4894    9.7217 N.2     1  UNL1       -0.0343
     12 C          63.7258   83.4405   10.6945 C.3     1  UNL1        0.0136
     13 C          63.0095   84.3919   11.6064 C.3     1  UNL1        0.1234
     14 N          61.6250   89.3870   11.9707 N.3     1  UNL1       -0.2536
     15 H          60.8754   89.6171   12.5660 H       1  UNL1        0.1274
     16 C          62.7763   90.3356   11.8135 C.3     1  UNL1        0.0718
     17 C          63.2550   90.9351   10.5245 C.3     1  UNL1        0.0169
     18 C          64.4256   91.8212   10.8320 C.3     1  UNL1        0.0025
     19 C          64.6703   91.7693   12.3111 C.3     1  UNL1        0.0165
     20 C          63.6510   90.8511   12.9176 C.3     1  UNL1        0.1058
     21 C          63.5280   90.5086   14.3728 C.1     1  UNL1        0.0734
     22 N          63.4050   90.1662   15.8280 N.1     1  UNL1       -0.1958
@<TRIPOS>BOND
     1    12    13    1
     2    13     1    1
     3     1     2    2
     4     2     3    1
     5     3    14    1
     6    16    14    1
     7    16    17    1
     8    17    18    1
     9    18    19    1
    10    19    20    1
    11    20    21    1
    12    21    22    3
    13     3     4    1
    14     4     5    2
    15     5     6    1
    16     6     7    2
    17     7     8    1
    18     8     9    2
    19     8    10    1
    20    10    11    2
    21    11     1    1
    22    20    16    1
    23    10     4    1
    24    14    15    1
@<TRIPOS>MOLECULE
*****
 22 24 0 0 0
SMALL
GASTEIGER

@<TRIPOS>ATOM
      1 C          63.4758   90.2437   15.0449 C.2     1  UNL1        0.3481
      2 N          62.6775   89.7115   13.8919 N.2     1  UNL1       -0.0461
      3 C          62.9522   90.2001   12.5006 C.3     1  UNL1        0.3004
      4 C          64.0253   91.2208   12.2622 C.2     1  UNL1        0.0911
      5 C          64.3000   91.7094   10.8709 C.2     1  UNL1        0.0231
      6 C          65.3730   92.7301   10.6326 C.2     1  UNL1        0.0890
      7 N          66.1712   93.2622   11.7857 N.am    1  UNL1       -0.1710
      8 C          65.8965   92.7737   13.1770 C.2     1  UNL1        0.3121
      9 O          66.6948   93.3058   14.3301 O.2     1  UNL1       -0.2639
     10 C          64.8236   91.7530   13.4153 C.2     1  UNL1        0.2494
     11 N          64.5488   91.2644   14.8067 N.2     1  UNL1       -0.0343
     12 C          63.1568   88.2826   16.7191 C.3     1  UNL1        0.0136
     13 C          63.2011   89.7551   16.4363 C.3     1  UNL1        0.1234
     14 N          62.1540   89.6679   11.3475 N.3     1  UNL1       -0.2536
     15 H          61.6806   90.2891   10.7481 H       1  UNL1        0.1274
     16 C          62.0768   88.1892   11.1077 C.3     1  UNL1        0.0718
     17 C          62.7490   87.1270   11.9261 C.3     1  UNL1        0.0169
     18 C          62.4016   85.7944   11.3316 C.3     1  UNL1        0.0025
     19 C          61.5146   86.0331   10.1457 C.3     1  UNL1        0.0165
     20 C          61.3139   87.5131   10.0073 C.3     1  UNL1        0.1058
     21 C          60.4942   88.1970    8.9536 C.1     1  UNL1        0.0734
     22 N          59.6744   88.8808    7.8998 N.1     1  UNL1       -0.1958
@<TRIPOS>BOND
     1    12    13    1
     2    13     1    1
     3     1     2    2
     4     2     3    1
     5     3    14    1
     6    16    14    1
     7    16    17    1
     8    17    18    1
     9    18    19    1
    10    19    20    1
    11    20    21    1
    12    21    22    3
    13     3     4    1
    14     4     5    2
    15     5     6    1
    16     6     7    2
    17     7     8    1
    18     8     9    2
    19     8    10    1
    20    10    11    2
    21    11     1    1
    22    20    16    1
    23    10     4    1
    24    14    15    1
@<TRIPOS>MOLECULE
*****
 22 24 0 0 0
SMALL
GASTEIGER

@<TRIPOS>ATOM
      1 C          62.8029   85.0805    8.5038 C.2     1  UNL1        0.3481
      2 N          62.1936   86.2804    9.1664 N.2     1  UNL1       -0.0461
      3 C          62.2116   86.4017   10.6613 C.3     1  UNL1        0.3004
      4 C          62.8389   85.3230   11.4938 C.2     1  UNL1        0.0911
      5 C          62.8569   85.4442   12.9888 C.2     1  UNL1        0.0231
      6 C          63.4842   84.3655   13.8212 C.2     1  UNL1        0.0890
      7 N          64.0935   83.1656   13.1586 N.am    1  UNL1       -0.1710
      8 C          64.0755   83.0444   11.6637 C.2     1  UNL1        0.3121
      9 O          64.6848   81.8445   11.0011 O.2     1  UNL1       -0.2639
     10 C          63.4482   84.1231   10.8313 C.2     1  UNL1        0.2494
     11 N          63.4302   84.0019    9.3362 N.2     1  UNL1       -0.0343
     12 C          61.5384   84.5066    6.3080 C.3     1  UNL1        0.0136
     13 C          62.7849   84.9593    7.0088 C.3     1  UNL1        0.1234
     14 N          61.6023   87.6016   11.3239 N.3     1  UNL1       -0.2536
     15 H          60.7782   87.5058   11.8539 H       1  UNL1        0.1274
     16 C          62.2486   88.9474   11.1788 C.3     1  UNL1        0.0718
     17 C          62.0479   89.9039   10.0409 C.3     1  UNL1        0.0169
     18 C          62.8843   91.1207   10.3050 C.3     1  UNL1        0.0025
     19 C          63.6020   90.9162   11.6063 C.3     1  UNL1        0.0165
     20 C          63.2091   89.5731   12.1463 C.3     1  UNL1        0.1058
     21 C          63.6919   88.9628   13.4286 C.1     1  UNL1        0.0734
     22 N          64.1747   88.3525   14.7110 N.1     1  UNL1       -0.1958
@<TRIPOS>BOND
     1    12    13    1
     2    13     1    1
     3     1     2    2
     4     2     3    1
     5     3    14    1
     6    16    14    1
     7    16    17    1
     8    17    18    1
     9    18    19    1
    10    19    20    1
    11    20    21    1
    12    21    22    3
    13     3     4    1
    14     4     5    2
    15     5     6    1
    16     6     7    2
    17     7     8    1
    18     8     9    2
    19     8    10    1
    20    10    11    2
    21    11     1    1
    22    20    16    1
    23    10     4    1
    24    14    15    1
@<TRIPOS>MOLECULE
*****
 22 24 0 0 0
SMALL
GASTEIGER

@<TRIPOS>ATOM
      1 C          62.9179   84.9578    8.8397 C.2     1  UNL1        0.3481
      2 N          62.2753   86.1415    9.5000 N.2     1  UNL1       -0.0461
      3 C          62.2684   86.2538   10.9958 C.3     1  UNL1        0.3004
      4 C          62.9041   85.1824   11.8313 C.2     1  UNL1        0.0911
      5 C          62.8972   85.2947   13.3270 C.2     1  UNL1        0.0231
      6 C          63.5328   84.2234   14.1625 C.2     1  UNL1        0.0890
      7 N          64.1754   83.0397   13.5022 N.am    1  UNL1       -0.1710
      8 C          64.1823   82.9274   12.0065 C.2     1  UNL1        0.3121
      9 O          64.8249   81.7437   11.3462 O.2     1  UNL1       -0.2639
     10 C          63.5467   83.9987   11.1710 C.2     1  UNL1        0.2494
     11 N          63.5536   83.8865    9.6752 N.2     1  UNL1       -0.0343
     12 C          61.6311   84.7179    6.5954 C.3     1  UNL1        0.0136
     13 C          62.9248   84.8455    7.3439 C.3     1  UNL1        0.1234
     14 N          61.6258   87.4375   11.6560 N.3     1  UNL1       -0.2536
     15 H          60.8515   87.3094   12.2505 H       1  UNL1        0.1274
     16 C          62.1629   88.8164   11.4106 C.3     1  UNL1        0.0718
     17 C          63.1702   89.5342   12.2592 C.3     1  UNL1        0.0169
     18 C          63.4168   90.8810   11.6466 C.3     1  UNL1        0.0025
     19 C          62.5618   90.9955   10.4194 C.3     1  UNL1        0.0165
     20 C          61.7868   89.7196   10.2736 C.3     1  UNL1        0.1058
     21 C          60.8078   89.4025    9.1824 C.1     1  UNL1        0.0734
     22 N          59.8287   89.0854    8.0911 N.1     1  UNL1       -0.1958
@<TRIPOS>BOND
     1    12    13    1
     2    13     1    1
     3     1     2    2
     4     2     3    1
     5     3    14    1
     6    16    14    1
     7    16    17    1
     8    17    18    1
     9    18    19    1
    10    19    20    1
    11    20    21    1
    12    21    22    3
    13     3     4    1
    14     4     5    2
    15     5     6    1
    16     6     7    2
    17     7     8    1
    18     8     9    2
    19     8    10    1
    20    10    11    2
    21    11     1    1
    22    20    16    1
    23    10     4    1
    24    14    15    1
@<TRIPOS>MOLECULE
*****
 22 24 0 0 0
SMALL
GASTEIGER

@<TRIPOS>ATOM
      1 C          62.7627   84.0346   12.0539 C.2     1  UNL1        0.3481
      2 N          63.4999   84.7252   13.1628 N.2     1  UNL1       -0.0461
      3 C          63.5718   86.2230   13.1968 C.3     1  UNL1        0.3004
      4 C          62.9064   87.0304   12.1218 C.2     1  UNL1        0.0911
      5 C          62.9783   88.5282   12.1557 C.2     1  UNL1        0.0231
      6 C          62.3130   89.3355   11.0807 C.2     1  UNL1        0.0890
      7 N          61.5758   88.6450    9.9718 N.am    1  UNL1       -0.1710
      8 C          61.5039   87.1471    9.9379 C.2     1  UNL1        0.3121
      9 O          60.7667   86.4565    8.8290 O.2     1  UNL1       -0.2639
     10 C          62.1692   86.3398   11.0129 C.2     1  UNL1        0.2494
     11 N          62.0973   84.8419   10.9790 N.2     1  UNL1       -0.0343
     12 C          63.0756   81.7397   13.2312 C.3     1  UNL1        0.0136
     13 C          62.6908   82.5366   12.0200 C.3     1  UNL1        0.1234
     14 N          64.3090   86.9136   14.3056 N.3     1  UNL1       -0.2536
     15 H          65.1927   87.3127   14.1355 H       1  UNL1        0.1274
     16 C          63.6997   86.9961   15.6738 C.3     1  UNL1        0.0718
     17 C          63.3827   85.8352   16.5693 C.3     1  UNL1        0.0169
     18 C          62.7875   86.3757   17.8357 C.3     1  UNL1        0.0025
     19 C          62.7368   87.8706   17.7228 C.3     1  UNL1        0.0165
     20 C          63.3005   88.2540   16.3867 C.3     1  UNL1        0.1058
     21 C          63.4405   89.6502   15.8567 C.1     1  UNL1        0.0734
     22 N          63.5804   91.0464   15.3266 N.1     1  UNL1       -0.1958
@<TRIPOS>BOND
     1    12    13    1
     2    13     1    1
     3     1     2    2
     4     2     3    1
     5     3    14    1
     6    16    14    1
     7    16    17    1
     8    17    18    1
     9    18    19    1
    10    19    20    1
    11    20    21    1
    12    21    22    3
    13     3     4    1
    14     4     5    2
    15     5     6    1
    16     6     7    2
    17     7     8    1
    18     8     9    2
    19     8    10    1
    20    10    11    2
    21    11     1    1
    22    20    16    1
    23    10     4    1
    24    14    15    1
@<TRIPOS>MOLECULE
*****
 22 24 0 0 0
SMALL
GASTEIGER

@<TRIPOS>ATOM
      1 C          63.7602   86.2070   13.7853 C.2     1  UNL1        0.3481
      2 N          62.7789   85.8594   12.7054 N.2     1  UNL1       -0.0461
      3 C          62.2553   86.9302   11.7948 C.3     1  UNL1        0.3004
      4 C          62.7129   88.3487   11.9642 C.2     1  UNL1        0.0911
      5 C          62.1893   89.4195   11.0536 C.2     1  UNL1        0.0231
      6 C          62.6469   90.8378   11.2230 C.2     1  UNL1        0.0890
      7 N          63.6282   91.1854   12.3030 N.am    1  UNL1       -0.1710
      8 C          64.1518   90.1146   13.2135 C.2     1  UNL1        0.3121
      9 O          65.1331   90.4622   14.2935 O.2     1  UNL1       -0.2639
     10 C          63.6942   88.6963   13.0441 C.2     1  UNL1        0.2494
     11 N          64.2178   87.6254   13.9547 N.2     1  UNL1       -0.0343
     12 C          64.6537   83.7932   14.1394 C.3     1  UNL1        0.0136
     13 C          64.2839   85.1361   14.6959 C.3     1  UNL1        0.1234
     14 N          61.2740   86.5826   10.7149 N.3     1  UNL1       -0.2536
     15 H          60.3156   86.7679   10.8424 H       1  UNL1        0.1274
     16 C          61.7530   85.9526    9.4407 C.3     1  UNL1        0.0718
     17 C          63.0597   85.2424    9.2451 C.3     1  UNL1        0.0169
     18 C          63.1237   84.7731    7.8219 C.3     1  UNL1        0.0025
     19 C          61.8566   85.1933    7.1378 C.3     1  UNL1        0.0165
     20 C          61.0095   85.9223    8.1383 C.3     1  UNL1        0.1058
     21 C          59.6564   86.5166    7.8815 C.1     1  UNL1        0.0734
     22 N          58.3033   87.1109    7.6246 N.1     1  UNL1       -0.1958
@<TRIPOS>BOND
     1    12    13    1
     2    13     1    1
     3     1     2    2
     4     2     3    1
     5     3    14    1
     6    16    14    1
     7    16    17    1
     8    17    18    1
     9    18    19    1
    10    19    20    1
    11    20    21    1
    12    21    22    3
    13     3     4    1
    14     4     5    2
    15     5     6    1
    16     6     7    2
    17     7     8    1
    18     8     9    2
    19     8    10    1
    20    10    11    2
    21    11     1    1
    22    20    16    1
    23    10     4    1
    24    14    15    1
@<TRIPOS>MOLECULE
*****
 22 24 0 0 0
SMALL
GASTEIGER

@<TRIPOS>ATOM
      1 C          63.7855   90.4957   15.3036 C.2     1  UNL1        0.3481
      2 N          63.1778   89.9683   14.0377 N.2     1  UNL1       -0.0461
      3 C          63.6336   90.4968   12.7099 C.3     1  UNL1        0.3004
      4 C          64.6973   91.5527   12.6481 C.2     1  UNL1        0.0911
      5 C          65.1532   92.0812   11.3204 C.2     1  UNL1        0.0231
      6 C          66.2168   93.1370   11.2586 C.2     1  UNL1        0.0890
      7 N          66.8245   93.6644   12.5245 N.am    1  UNL1       -0.1710
      8 C          66.3687   93.1359   13.8522 C.2     1  UNL1        0.3121
      9 O          66.9764   93.6633   15.1181 O.2     1  UNL1       -0.2639
     10 C          65.3050   92.0801   13.9140 C.2     1  UNL1        0.2494
     11 N          64.8491   91.5516   15.2418 N.2     1  UNL1       -0.0343
     12 C          63.1130   88.4947   16.8181 C.3     1  UNL1        0.0136
     13 C          63.3296   89.9672   16.6313 C.3     1  UNL1        0.1234
     14 N          63.0259   89.9694   11.4440 N.3     1  UNL1       -0.2536
     15 H          63.5868   89.8400   10.6454 H       1  UNL1        0.1274
     16 C          61.5635   89.6392   11.3950 C.3     1  UNL1        0.0718
     17 C          60.4339   90.6138   11.5505 C.3     1  UNL1        0.0169
     18 C          59.1462   89.8533   11.4334 C.3     1  UNL1        0.0025
     19 C          59.4801   88.4088   11.2054 C.3     1  UNL1        0.0165
     20 C          60.9741   88.2765   11.1817 C.3     1  UNL1        0.1058
     21 C          61.7435   87.0047   10.9801 C.1     1  UNL1        0.0734
     22 N          62.5128   85.7330   10.7784 N.1     1  UNL1       -0.1958
@<TRIPOS>BOND
     1    12    13    1
     2    13     1    1
     3     1     2    2
     4     2     3    1
     5     3    14    1
     6    16    14    1
     7    16    17    1
     8    17    18    1
     9    18    19    1
    10    19    20    1
    11    20    21    1
    12    21    22    3
    13     3     4    1
    14     4     5    2
    15     5     6    1
    16     6     7    2
    17     7     8    1
    18     8     9    2
    19     8    10    1
    20    10    11    2
    21    11     1    1
    22    20    16    1
    23    10     4    1
    24    14    15    1
