@<TRIPOS>MOLECULE
*****
 38 44 0 0 0
SMALL
GASTEIGER

@<TRIPOS>ATOM
      1 N          60.9167   88.8025    8.5179 N.pl3   1  UNL1       -0.3075
      2 C          60.5580   87.3605    8.7236 C.3     1  UNL1        0.0911
      3 C          61.1158   86.6088    9.8957 C.3     1  UNL1        0.0258
      4 C          62.0323   87.2990   10.8620 C.3     1  UNL1        0.0256
      5 C          61.9061   85.8969   11.3803 C.2     1  UNL1       -0.0304
      6 C          62.8211   86.2358   12.5196 C.2     1  UNL1       -0.0219
      7 C          62.9472   87.6377   12.0013 C.3     1  UNL1        0.0303
      8 C          62.3909   88.7408   10.6563 C.3     1  UNL1        0.0258
      9 C          61.8331   89.4926    9.4842 C.3     1  UNL1        0.0911
     10 CA         59.6122   92.4643    2.8487 C.ar    1  UNL1        0.0952
     11 C          61.0968   92.3673    3.0398 C.ar    1  UNL1        0.0203
     12 C          61.6546   91.6155    4.2119 C.ar    1  UNL1        0.0031
     13 C          60.7278   90.9608    5.1929 C.ar    1  UNL1        0.0189
     14 C          61.2856   90.2090    6.3649 C.ar    1  UNL1        0.0160
     15 C          60.3589   89.5542    7.3459 C.ar    1  UNL1        0.0479
     16 C          58.8742   89.6512    7.1548 C.ar    1  UNL1        0.0161
     17 C          58.3164   90.4029    5.9827 C.ar    1  UNL1        0.0204
     18 C          59.2432   91.0577    5.0017 C.ar    1  UNL1        0.0814
     19 N          58.6854   91.8095    3.8297 N.ar    1  UNL1       -0.2442
     20 O          58.1803   92.5123    0.6815 O.co2   1  UNL1       -0.5430
     21 C          59.0544   93.2160    1.6767 C.2     1  UNL1        0.0905
     22 OXT        59.3707   94.6716    1.4999 O.co2   1  UNL1       -0.5430
     23 C          63.3789   85.4841   13.6916 C.ar    1  UNL1        0.0495
     24 C          63.6310   84.0067   13.7524 C.ar    1  UNL1        0.1239
     25 N          64.1905   83.6872   15.1071 N.ar    1  UNL1       -0.0773
     26 O          64.2842   84.9672   15.8835 O.2     1  UNL1       -0.3578
     27 C          63.7826   86.0778   15.0087 C.ar    1  UNL1        0.1535
     28 C          63.3695   83.0216   12.6519 C.ar    1  UNL1        0.0451
     29 C          62.3649   81.9254   12.8495 C.ar    1  UNL1        0.0791
     30 CL         61.6218   81.8142   14.1477 Cl      1  UNL1       -0.0805
     31 C          62.1035   80.9403   11.7489 C.ar    1  UNL1        0.1103
     32 N          62.8467   81.0515   10.4507 N.ar    1  UNL1       -0.2405
     33 C          63.8512   82.1478   10.2530 C.ar    1  UNL1        0.1103
     34 C          64.1127   83.1328   11.3537 C.ar    1  UNL1        0.0791
     35 CL         65.1173   84.2290   11.1560 Cl      1  UNL1       -0.0805
     36 C          63.6993   87.5274   15.3849 C.3     1  UNL1        0.0602
     37 C          63.2540   88.5995   16.3348 C.3     1  UNL1        0.0081
     38 C          64.0005   88.9662   15.0866 C.3     1  UNL1        0.0081
@<TRIPOS>UNITY_ATOM_ATTR
20 1
charge -1
@<TRIPOS>BOND
     1    20    21   ar
     2    21    22   ar
     3    21    10    1
     4    10    11   ar
     5    11    12   ar
     6    12    13   ar
     7    13    14   ar
     8    14    15   ar
     9    15     1    1
    10     1     2    1
    11     2     3    1
    12     3     4    1
    13     4     5    1
    14     5     6    2
    15     6    23    1
    16    23    24   ar
    17    24    28    1
    18    28    29   ar
    19    29    30    1
    20    29    31   ar
    21    31    32   ar
    22    32    33   ar
    23    33    34   ar
    24    34    35    1
    25    24    25   ar
    26    25    26   ar
    27    26    27   ar
    28    27    36    1
    29    36    37    1
    30    37    38    1
    31     6     7    1
    32     4     8    1
    33     8     9    1
    34    15    16   ar
    35    16    17   ar
    36    17    18   ar
    37    18    19   ar
    38    19    10   ar
    39    18    13   ar
    40     9     1    1
    41     7     4    1
    42    27    23   ar
    43    38    36    1
    44    34    28   ar
@<TRIPOS>MOLECULE
*****
 38 44 0 0 0
SMALL
GASTEIGER

@<TRIPOS>ATOM
      1 N          60.3671   91.5321    4.3448 N.pl3   1  UNL1       -0.3075
      2 C          61.7161   91.5901    3.6914 C.3     1  UNL1        0.0911
      3 C          61.9126   92.4054    2.4478 C.3     1  UNL1        0.0258
      4 C          60.7601   93.1628    1.8576 C.3     1  UNL1        0.0256
      5 C          61.9203   93.4538    0.9524 C.2     1  UNL1       -0.0304
      6 C          61.0380   94.3158    0.0988 C.2     1  UNL1       -0.0219
      7 C          59.8779   94.0248    1.0039 C.3     1  UNL1        0.0303
      8 C          59.4112   93.1047    2.5110 C.3     1  UNL1        0.0258
      9 C          59.2147   92.2894    3.7546 C.3     1  UNL1        0.0911
     10 CA         60.5387   88.4084   10.4655 C.ar    1  UNL1        0.0952
     11 C          61.6929   89.3614   10.3681 C.ar    1  UNL1        0.0203
     12 C          61.8894   90.1767    9.1245 C.ar    1  UNL1        0.0031
     13 C          60.9317   90.0391    7.9783 C.ar    1  UNL1        0.0189
     14 C          61.1282   90.8544    6.7346 C.ar    1  UNL1        0.0160
     15 C          60.1705   90.7167    5.5884 C.ar    1  UNL1        0.0479
     16 C          59.0163   89.7637    5.6858 C.ar    1  UNL1        0.0161
     17 C          58.8197   88.9483    6.9294 C.ar    1  UNL1        0.0204
     18 C          59.7775   89.0860    8.0757 C.ar    1  UNL1        0.0814
     19 N          59.5810   88.2707    9.3193 N.ar    1  UNL1       -0.2442
     20 O          61.1508   86.3484   11.9255 O.co2   1  UNL1       -0.5430
     21 C          60.3421   87.5930   11.7091 C.2     1  UNL1        0.0905
     22 OXT        59.3369   88.0223   12.7364 O.co2   1  UNL1       -0.5430
     23 C          61.2345   95.1312   -1.1448 C.ar    1  UNL1        0.0495
     24 C          60.1871   95.4350   -2.1746 C.ar    1  UNL1        0.1239
     25 N          60.8182   96.2774   -3.2432 N.ar    1  UNL1       -0.0773
     26 O          62.2557   96.4943   -2.8739 O.2     1  UNL1       -0.3578
     27 C          62.5131   95.7859   -1.5770 C.ar    1  UNL1        0.1535
     28 C          58.7591   94.9768   -2.1416 C.ar    1  UNL1        0.0451
     29 C          57.7635   95.6870   -1.2730 C.ar    1  UNL1        0.0791
     30 CL         58.1958   96.8553   -0.4375 Cl      1  UNL1       -0.0805
     31 C          56.3355   95.2287   -1.2401 C.ar    1  UNL1        0.1103
     32 N          55.9033   94.0604   -2.0756 N.ar    1  UNL1       -0.2405
     33 C          56.8990   93.3502   -2.9441 C.ar    1  UNL1        0.1103
     34 C          58.3269   93.8085   -2.9771 C.ar    1  UNL1        0.0791
     35 CL         59.3226   93.0983   -3.8456 Cl      1  UNL1       -0.0805
     36 C          63.8195   95.7401   -0.8415 C.3     1  UNL1        0.0602
     37 C          64.8751   96.4246   -0.0245 C.3     1  UNL1        0.0081
     38 C          65.0269   94.9764   -0.3844 C.3     1  UNL1        0.0081
@<TRIPOS>UNITY_ATOM_ATTR
20 1
charge -1
@<TRIPOS>BOND
     1    20    21   ar
     2    21    22   ar
     3    21    10    1
     4    10    11   ar
     5    11    12   ar
     6    12    13   ar
     7    13    14   ar
     8    14    15   ar
     9    15     1    1
    10     1     2    1
    11     2     3    1
    12     3     4    1
    13     4     5    1
    14     5     6    2
    15     6    23    1
    16    23    24   ar
    17    24    28    1
    18    28    29   ar
    19    29    30    1
    20    29    31   ar
    21    31    32   ar
    22    32    33   ar
    23    33    34   ar
    24    34    35    1
    25    24    25   ar
    26    25    26   ar
    27    26    27   ar
    28    27    36    1
    29    36    37    1
    30    37    38    1
    31     6     7    1
    32     4     8    1
    33     8     9    1
    34    15    16   ar
    35    16    17   ar
    36    17    18   ar
    37    18    19   ar
    38    19    10   ar
    39    18    13   ar
    40     9     1    1
    41     7     4    1
    42    27    23   ar
    43    38    36    1
    44    34    28   ar
@<TRIPOS>MOLECULE
*****
 38 44 0 0 0
SMALL
GASTEIGER

@<TRIPOS>ATOM
      1 N          60.8302   88.7705    8.4661 N.pl3   1  UNL1       -0.3075
      2 C          61.6794   89.4326    9.5105 C.3     1  UNL1        0.0911
      3 C          62.2075   88.6335   10.6649 C.3     1  UNL1        0.0258
      4 C          61.8865   87.1723   10.7748 C.3     1  UNL1        0.0256
      5 C          62.7377   87.4741   11.9726 C.2     1  UNL1       -0.0304
      6 C          62.6334   86.0422   12.4073 C.2     1  UNL1       -0.0219
      7 C          61.7824   85.7405   11.2096 C.3     1  UNL1        0.0303
      8 C          61.0375   86.5103    9.7304 C.3     1  UNL1        0.0258
      9 C          60.5093   87.3094    8.5761 C.3     1  UNL1        0.0911
     10 CA         59.6680   92.5753    2.8606 C.ar    1  UNL1        0.0952
     11 C          61.1465   92.3846    3.0267 C.ar    1  UNL1        0.0203
     12 C          61.6746   91.5855    4.1810 C.ar    1  UNL1        0.0031
     13 C          60.7243   90.9771    5.1692 C.ar    1  UNL1        0.0189
     14 C          61.2524   90.1780    6.3236 C.ar    1  UNL1        0.0160
     15 C          60.3021   89.5696    7.3118 C.ar    1  UNL1        0.0479
     16 C          58.8235   89.7603    7.1457 C.ar    1  UNL1        0.0161
     17 C          58.2954   90.5594    5.9914 C.ar    1  UNL1        0.0204
     18 C          59.2458   91.1678    5.0031 C.ar    1  UNL1        0.0814
     19 N          58.7177   91.9669    3.8488 N.ar    1  UNL1       -0.2442
     20 O          58.3341   92.7018    0.6346 O.co2   1  UNL1       -0.5430
     21 C          59.1398   93.3744    1.7062 C.2     1  UNL1        0.0905
     22 OXT        59.4174   94.8462    1.6234 O.co2   1  UNL1       -0.5430
     23 C          63.1616   85.2431   13.5616 C.ar    1  UNL1        0.0495
     24 C          63.5264   85.7817   14.9132 C.ar    1  UNL1        0.1239
     25 N          64.0079   84.6366   15.7540 N.ar    1  UNL1       -0.0773
     26 O          63.9408   83.3903   14.9220 O.2     1  UNL1       -0.3578
     27 C          63.4177   83.7651   13.5670 C.ar    1  UNL1        0.1535
     28 C          63.4271   87.2139   15.3479 C.ar    1  UNL1        0.0451
     29 C          64.0427   88.2960   14.5111 C.ar    1  UNL1        0.0791
     30 CL         64.7576   87.9459   13.2398 Cl      1  UNL1       -0.0805
     31 C          63.9433   89.7282   14.9459 C.ar    1  UNL1        0.1103
     32 N          63.2284   90.0782   16.2172 N.ar    1  UNL1       -0.2405
     33 C          62.6128   88.9961   17.0539 C.ar    1  UNL1        0.1103
     34 C          62.7121   87.5639   16.6192 C.ar    1  UNL1        0.0791
     35 CL         62.0965   86.4818   17.4559 Cl      1  UNL1       -0.0805
     36 C          63.1906   82.8268   12.4190 C.3     1  UNL1        0.0602
     37 C          62.5730   81.5769   11.8654 C.3     1  UNL1        0.0081
     38 C          63.4149   82.4514   10.9842 C.3     1  UNL1        0.0081
@<TRIPOS>UNITY_ATOM_ATTR
20 1
charge -1
@<TRIPOS>BOND
     1    20    21   ar
     2    21    22   ar
     3    21    10    1
     4    10    11   ar
     5    11    12   ar
     6    12    13   ar
     7    13    14   ar
     8    14    15   ar
     9    15     1    1
    10     1     2    1
    11     2     3    1
    12     3     4    1
    13     4     5    1
    14     5     6    2
    15     6    23    1
    16    23    24   ar
    17    24    28    1
    18    28    29   ar
    19    29    30    1
    20    29    31   ar
    21    31    32   ar
    22    32    33   ar
    23    33    34   ar
    24    34    35    1
    25    24    25   ar
    26    25    26   ar
    27    26    27   ar
    28    27    36    1
    29    36    37    1
    30    37    38    1
    31     6     7    1
    32     4     8    1
    33     8     9    1
    34    15    16   ar
    35    16    17   ar
    36    17    18   ar
    37    18    19   ar
    38    19    10   ar
    39    18    13   ar
    40     9     1    1
    41     7     4    1
    42    27    23   ar
    43    38    36    1
    44    34    28   ar
@<TRIPOS>MOLECULE
*****
 38 44 0 0 0
SMALL
GASTEIGER

@<TRIPOS>ATOM
      1 N          60.3615   91.2598    4.4818 N.pl3   1  UNL1       -0.3075
      2 C          61.6675   91.2297    3.7446 C.3     1  UNL1        0.0911
      3 C          61.8294   92.0095    2.4735 C.3     1  UNL1        0.0258
      4 C          60.6852   92.8194    1.9396 C.3     1  UNL1        0.0256
      5 C          61.7999   93.0279    0.9577 C.2     1  UNL1       -0.0304
      6 C          60.9141   93.9222    0.1420 C.2     1  UNL1       -0.0219
      7 C          59.7994   93.7137    1.1238 C.3     1  UNL1        0.0303
      8 C          59.3793   92.8495    2.6768 C.3     1  UNL1        0.0258
      9 C          59.2174   92.0697    3.9479 C.3     1  UNL1        0.0911
     10 CA         60.6535   88.3715   10.7126 C.ar    1  UNL1        0.0952
     11 C          61.7547   89.3823   10.5878 C.ar    1  UNL1        0.0203
     12 C          61.9166   90.1621    9.3167 C.ar    1  UNL1        0.0031
     13 C          60.9772   89.9311    8.1704 C.ar    1  UNL1        0.0189
     14 C          61.1390   90.7109    6.8993 C.ar    1  UNL1        0.0160
     15 C          60.1997   90.4800    5.7529 C.ar    1  UNL1        0.0479
     16 C          59.0984   89.4692    5.8776 C.ar    1  UNL1        0.0161
     17 C          58.9365   88.6894    7.1487 C.ar    1  UNL1        0.0204
     18 C          59.8760   88.9204    8.2951 C.ar    1  UNL1        0.0814
     19 N          59.7141   88.1406    9.5662 N.ar    1  UNL1       -0.2442
     20 O          61.2621   86.3209   12.1872 O.co2   1  UNL1       -0.5430
     21 C          60.4917   87.5917   11.9837 C.2     1  UNL1        0.0905
     22 OXT        59.5594   88.0827   13.0513 O.co2   1  UNL1       -0.5430
     23 C          61.0759   94.7020   -1.1291 C.ar    1  UNL1        0.0495
     24 C          62.1844   95.6641   -1.4382 C.ar    1  UNL1        0.1239
     25 N          61.9513   96.2133   -2.8144 N.ar    1  UNL1       -0.0773
     26 O          60.6987   95.5907   -3.3559 O.2     1  UNL1       -0.3578
     27 C          60.1576   94.6566   -2.3144 C.ar    1  UNL1        0.1535
     28 C          63.3258   96.0153   -0.5305 C.ar    1  UNL1        0.0451
     29 C          63.0540   96.5043    0.8613 C.ar    1  UNL1        0.0791
     30 CL         61.6410   96.6421    1.3453 Cl      1  UNL1       -0.0805
     31 C          64.1955   96.8555    1.7690 C.ar    1  UNL1        0.1103
     32 N          65.6085   96.7177    1.2849 N.ar    1  UNL1       -0.2405
     33 C          65.8802   96.2287   -0.1068 C.ar    1  UNL1        0.1103
     34 C          64.7388   95.8775   -1.0145 C.ar    1  UNL1        0.0791
     35 CL         65.0105   95.3885   -2.4063 Cl      1  UNL1       -0.0805
     36 C          58.9163   93.8235   -2.4365 C.3     1  UNL1        0.0602
     37 C          57.5530   93.4429   -1.9397 C.3     1  UNL1        0.0081
     38 C          58.1295   92.7610   -3.1450 C.3     1  UNL1        0.0081
@<TRIPOS>UNITY_ATOM_ATTR
20 1
charge -1
@<TRIPOS>BOND
     1    20    21   ar
     2    21    22   ar
     3    21    10    1
     4    10    11   ar
     5    11    12   ar
     6    12    13   ar
     7    13    14   ar
     8    14    15   ar
     9    15     1    1
    10     1     2    1
    11     2     3    1
    12     3     4    1
    13     4     5    1
    14     5     6    2
    15     6    23    1
    16    23    24   ar
    17    24    28    1
    18    28    29   ar
    19    29    30    1
    20    29    31   ar
    21    31    32   ar
    22    32    33   ar
    23    33    34   ar
    24    34    35    1
    25    24    25   ar
    26    25    26   ar
    27    26    27   ar
    28    27    36    1
    29    36    37    1
    30    37    38    1
    31     6     7    1
    32     4     8    1
    33     8     9    1
    34    15    16   ar
    35    16    17   ar
    36    17    18   ar
    37    18    19   ar
    38    19    10   ar
    39    18    13   ar
    40     9     1    1
    41     7     4    1
    42    27    23   ar
    43    38    36    1
    44    34    28   ar
