@<TRIPOS>MOLECULE
*****
 26 27 0 0 0
SMALL
GASTEIGER

@<TRIPOS>ATOM
      1 C          63.1826   86.9120   12.8336 C.2     1  UNL1        0.0709
      2 C          63.9989   87.2979   14.0313 C.2     1  UNL1        0.0283
      3 C          64.4578   86.2457   14.9969 C.3     1  UNL1        0.0470
      4 N          64.3564   88.7361   14.2636 N.pl3   1  UNL1       -0.3192
      5 C          63.8975   89.7883   13.2982 C.2     1  UNL1        0.0283
      6 C          64.2549   91.2265   13.5304 C.3     1  UNL1        0.0470
      7 C          63.0812   89.4024   12.1004 C.2     1  UNL1        0.0709
      8 C          62.7237   87.9643   11.8681 C.3     1  UNL1        0.0872
      9 H          64.8921   88.9893   15.0498 H       1  UNL1        0.1516
     10 C          61.9073   87.5784   10.6703 C.ar    1  UNL1        0.0554
     11 C          62.5477   86.8395    9.5327 C.ar    1  UNL1        0.0024
     12 C          61.7314   86.4536    8.3349 C.ar    1  UNL1        0.0001
     13 C          60.2747   86.8066    8.2747 C.ar    1  UNL1        0.0063
     14 C          59.6344   87.5455    9.4122 C.ar    1  UNL1        0.0749
     15 C          60.4508   87.9314   10.6101 C.ar    1  UNL1        0.2866
     16 N          59.8104   88.6702   11.7476 N.pl3   1  UNL1        0.0806
     17 O          59.5682   88.3505   13.1930 O.2     1  UNL1        0.0415
     18 O          59.2463   90.0427   11.5276 O.co2   1  UNL1       -0.5760
     19 C          62.8251   85.4739   12.6013 C.2     1  UNL1        0.3388
     20 O          61.7740   84.8165   13.4457 O.2     1  UNL1       -0.2452
     21 C          64.2083   83.4036   11.8591 C.3     1  UNL1        0.2559
     22 O          63.5188   84.6931   11.5247 O.3     1  UNL1       -0.4415
     23 C          62.6222   90.4547   11.1349 C.2     1  UNL1        0.3388
     24 O          61.9413   90.8574   11.0370 O.2     1  UNL1       -0.2452
     25 O          63.5517   90.9486   10.0662 O.3     1  UNL1       -0.4415
     26 C          64.4613   92.1092   10.3409 C.3     1  UNL1        0.2559
@<TRIPOS>UNITY_ATOM_ATTR
16 1
charge 1
18 1
charge -1
@<TRIPOS>BOND
     1    21    22    1
     2    22    19    1
     3    19    20    2
     4    19     1    1
     5     1     2    2
     6     2     3    1
     7     2     4    1
     8     4     5    1
     9     5     6    1
    10     5     7    2
    11     7    23    1
    12    23    24    2
    13    23    25    1
    14    25    26    1
    15     7     8    1
    16     8    10    1
    17    10    11   ar
    18    11    12   ar
    19    12    13   ar
    20    13    14   ar
    21    14    15   ar
    22    15    16    1
    23    16    17    2
    24    16    18    1
    25     8     1    1
    26    15    10   ar
    27     4     9    1
@<TRIPOS>MOLECULE
*****
 26 27 0 0 0
SMALL
GASTEIGER

@<TRIPOS>ATOM
      1 C          63.0472   89.2227   12.1102 C.2     1  UNL1        0.0709
      2 C          63.8335   89.5724   13.3387 C.2     1  UNL1        0.0283
      3 C          64.2127   90.9989   13.6057 C.3     1  UNL1        0.0470
      4 N          64.2406   88.4956   14.3004 N.pl3   1  UNL1       -0.3192
      5 C          63.8613   87.0691   14.0335 C.2     1  UNL1        0.0283
      6 C          64.2684   85.9923   14.9952 C.3     1  UNL1        0.0470
      7 C          63.0751   86.7194   12.8049 C.2     1  UNL1        0.0709
      8 C          62.6680   87.7962   11.8433 C.3     1  UNL1        0.0872
      9 H          64.7566   88.7251   15.1068 H       1  UNL1        0.1516
     10 C          61.8816   87.4465   10.6147 C.ar    1  UNL1        0.0554
     11 C          62.5473   86.7310    9.4766 C.ar    1  UNL1        0.0024
     12 C          61.7610   86.3813    8.2481 C.ar    1  UNL1        0.0001
     13 C          60.3091   86.7470    8.1575 C.ar    1  UNL1        0.0063
     14 C          59.6434   87.4624    9.2955 C.ar    1  UNL1        0.0749
     15 C          60.4298   87.8121   10.5241 C.ar    1  UNL1        0.2866
     16 N          59.7641   88.5276   11.6621 N.pl3   1  UNL1        0.0806
     17 O          59.6659   88.2744   13.1373 O.2     1  UNL1        0.0415
     18 O          58.9928   89.7886   11.4068 O.co2   1  UNL1       -0.5760
     19 C          62.6401   90.2995   11.1485 C.2     1  UNL1        0.3388
     20 O          61.2850   90.9326   11.2612 O.2     1  UNL1       -0.2452
     21 C          64.3870   92.0004   10.2512 C.3     1  UNL1        0.2559
     22 O          63.5881   90.7432   10.0742 O.3     1  UNL1       -0.4415
     23 C          62.6958   85.2929   12.5380 C.2     1  UNL1        0.3388
     24 O          62.0476   84.8544   12.6899 O.2     1  UNL1       -0.2452
     25 O          63.6575   84.3797   11.8371 O.3     1  UNL1       -0.4415
     26 C          64.1844   83.1636   12.5394 C.3     1  UNL1        0.2559
@<TRIPOS>UNITY_ATOM_ATTR
16 1
charge 1
18 1
charge -1
@<TRIPOS>BOND
     1    21    22    1
     2    22    19    1
     3    19    20    2
     4    19     1    1
     5     1     2    2
     6     2     3    1
     7     2     4    1
     8     4     5    1
     9     5     6    1
    10     5     7    2
    11     7    23    1
    12    23    24    2
    13    23    25    1
    14    25    26    1
    15     7     8    1
    16     8    10    1
    17    10    11   ar
    18    11    12   ar
    19    12    13   ar
    20    13    14   ar
    21    14    15   ar
    22    15    16    1
    23    16    17    2
    24    16    18    1
    25     8     1    1
    26    15    10   ar
    27     4     9    1
@<TRIPOS>MOLECULE
*****
 26 27 0 0 0
SMALL
GASTEIGER

@<TRIPOS>ATOM
      1 C          62.6929   85.2388   11.8851 C.2     1  UNL1        0.0709
      2 C          62.7673   84.6888   10.4916 C.2     1  UNL1        0.0283
      3 C          62.6429   85.6098    9.3142 C.3     1  UNL1        0.0470
      4 N          62.9661   83.2178   10.2755 N.pl3   1  UNL1       -0.3192
      5 C          63.0905   82.2968   11.4528 C.2     1  UNL1        0.0283
      6 C          63.2892   80.8259   11.2367 C.3     1  UNL1        0.0470
      7 C          63.0161   82.8468   12.8464 C.2     1  UNL1        0.0709
      8 C          62.8173   84.3178   13.0625 C.3     1  UNL1        0.0872
      9 H          63.0149   82.8569    9.3608 H       1  UNL1        0.1516
     10 C          62.7429   84.8678   14.4561 C.ar    1  UNL1        0.0554
     11 C          61.4096   85.0638   15.1149 C.ar    1  UNL1        0.0024
     12 C          61.3352   85.6137   16.5084 C.ar    1  UNL1        0.0001
     13 C          62.5941   85.9676   17.2433 C.ar    1  UNL1        0.0063
     14 C          63.9274   85.7716   16.5845 C.ar    1  UNL1        0.0749
     15 C          64.0018   85.2216   15.1909 C.ar    1  UNL1        0.2866
     16 N          65.3351   85.0256   14.5322 N.pl3   1  UNL1        0.0806
     17 O          65.8337   84.1337   13.4342 O.2     1  UNL1        0.0415
     18 O          66.5165   85.8375   14.9740 O.co2   1  UNL1       -0.5760
     19 C          62.4942   86.7098   12.1013 C.2     1  UNL1        0.3388
     20 O          61.2107   87.3628   11.6815 O.2     1  UNL1       -0.2452
     21 C          63.4704   89.0235   12.7674 C.3     1  UNL1        0.2559
     22 O          63.5788   87.5277   12.7372 O.3     1  UNL1       -0.4415
     23 C          63.1405   81.9258   14.0238 C.2     1  UNL1        0.3388
     24 O          63.7544   81.5653   14.3825 O.2     1  UNL1       -0.2452
     25 O          61.9159   81.5118   14.7847 O.3     1  UNL1       -0.4415
     26 C          60.7952   80.8092   14.0774 C.3     1  UNL1        0.2559
@<TRIPOS>UNITY_ATOM_ATTR
16 1
charge 1
18 1
charge -1
@<TRIPOS>BOND
     1    21    22    1
     2    22    19    1
     3    19    20    2
     4    19     1    1
     5     1     2    2
     6     2     3    1
     7     2     4    1
     8     4     5    1
     9     5     6    1
    10     5     7    2
    11     7    23    1
    12    23    24    2
    13    23    25    1
    14    25    26    1
    15     7     8    1
    16     8    10    1
    17    10    11   ar
    18    11    12   ar
    19    12    13   ar
    20    13    14   ar
    21    14    15   ar
    22    15    16    1
    23    16    17    2
    24    16    18    1
    25     8     1    1
    26    15    10   ar
    27     4     9    1
@<TRIPOS>MOLECULE
*****
 26 27 0 0 0
SMALL
GASTEIGER

@<TRIPOS>ATOM
      1 C          62.7986   88.8738   11.8143 C.2     1  UNL1        0.0709
      2 C          62.2642   87.7726   10.9473 C.2     1  UNL1        0.0283
      3 C          61.5316   88.1037    9.6808 C.3     1  UNL1        0.0470
      4 N          62.4625   86.3404   11.3465 N.pl3   1  UNL1       -0.3192
      5 C          63.1950   86.0093   12.6128 C.2     1  UNL1        0.0283
      6 C          63.3933   84.5771   13.0121 C.3     1  UNL1        0.0470
      7 C          63.7294   87.1105   13.4799 C.2     1  UNL1        0.0709
      8 C          63.5312   88.5427   13.0807 C.3     1  UNL1        0.0872
      9 H          62.1117   85.6177   10.7774 H       1  UNL1        0.1516
     10 C          64.0656   89.6439   13.9478 C.ar    1  UNL1        0.0554
     11 C          65.3551   90.3214   13.5901 C.ar    1  UNL1        0.0024
     12 C          65.8895   91.4225   14.4572 C.ar    1  UNL1        0.0001
     13 C          65.1344   91.8462   15.6821 C.ar    1  UNL1        0.0063
     14 C          63.8448   91.1686   16.0398 C.ar    1  UNL1        0.0749
     15 C          63.3104   90.0675   15.1727 C.ar    1  UNL1        0.2866
     16 N          62.0209   89.3899   15.5304 N.pl3   1  UNL1        0.0806
     17 O          60.6412   89.3984   14.9421 O.2     1  UNL1        0.0415
     18 O          61.9587   88.4743   16.7170 O.co2   1  UNL1       -0.5760
     19 C          62.6003   90.3060   11.4151 C.2     1  UNL1        0.3388
     20 O          63.6772   91.0311   10.6638 O.2     1  UNL1       -0.2452
     21 C          60.0125   90.2977   11.6451 C.3     1  UNL1        0.2559
     22 O          61.3252   91.0132   11.7671 O.3     1  UNL1       -0.4415
     23 C          64.4620   86.7794   14.7463 C.2     1  UNL1        0.3388
     24 O          65.2320   86.6957   14.9349 O.2     1  UNL1       -0.2452
     25 O          63.6967   86.5266   16.0114 O.3     1  UNL1       -0.4415
     26 C          63.0826   85.1810   16.2603 C.3     1  UNL1        0.2559
@<TRIPOS>UNITY_ATOM_ATTR
16 1
charge 1
18 1
charge -1
@<TRIPOS>BOND
     1    21    22    1
     2    22    19    1
     3    19    20    2
     4    19     1    1
     5     1     2    2
     6     2     3    1
     7     2     4    1
     8     4     5    1
     9     5     6    1
    10     5     7    2
    11     7    23    1
    12    23    24    2
    13    23    25    1
    14    25    26    1
    15     7     8    1
    16     8    10    1
    17    10    11   ar
    18    11    12   ar
    19    12    13   ar
    20    13    14   ar
    21    14    15   ar
    22    15    16    1
    23    16    17    2
    24    16    18    1
    25     8     1    1
    26    15    10   ar
    27     4     9    1
@<TRIPOS>MOLECULE
*****
 26 27 0 0 0
SMALL
GASTEIGER

@<TRIPOS>ATOM
      1 C          63.7384   87.0749   13.5989 C.2     1  UNL1        0.0709
      2 C          63.2214   85.9992   12.6904 C.2     1  UNL1        0.0283
      3 C          63.3767   84.5567   13.0716 C.3     1  UNL1        0.0470
      4 N          62.5491   86.3658   11.4006 N.pl3   1  UNL1       -0.3192
      5 C          62.3938   87.8082   11.0193 C.2     1  UNL1        0.0283
      6 C          61.7215   88.1748    9.7295 C.3     1  UNL1        0.0470
      7 C          62.9108   88.8839   11.9279 C.2     1  UNL1        0.0709
      8 C          63.5831   88.5173   13.2176 C.3     1  UNL1        0.0872
      9 H          62.2098   85.6597   10.8043 H       1  UNL1        0.1516
     10 C          64.1001   89.5931   14.1262 C.ar    1  UNL1        0.0554
     11 C          65.4417   90.2123   13.8678 C.ar    1  UNL1        0.0024
     12 C          65.9587   91.2881   14.7762 C.ar    1  UNL1        0.0001
     13 C          65.1342   91.7447   15.9432 C.ar    1  UNL1        0.0063
     14 C          63.7926   91.1254   16.2016 C.ar    1  UNL1        0.0749
     15 C          63.2756   90.0496   15.2931 C.ar    1  UNL1        0.2866
     16 N          61.9341   89.4304   15.5515 N.pl3   1  UNL1        0.0806
     17 O          60.6181   89.4571   14.8323 O.2     1  UNL1        0.0415
     18 O          61.7257   88.5707   16.7630 O.co2   1  UNL1       -0.5760
     19 C          64.4107   86.7083   14.8887 C.2     1  UNL1        0.3388
     20 O          65.8822   86.4181   14.9114 O.2     1  UNL1       -0.2452
     21 C          62.8804   85.3699   16.5063 C.3     1  UNL1        0.2559
     22 O          63.6116   86.6318   16.1558 O.3     1  UNL1       -0.4415
     23 C          62.7555   90.3264   11.5466 C.2     1  UNL1        0.3388
     24 O          62.2642   90.9103   11.7771 O.2     1  UNL1       -0.2452
     25 O          63.6611   90.9311   10.5150 O.3     1  UNL1       -0.4415
     26 C          64.5645   92.0698   10.8851 C.3     1  UNL1        0.2559
@<TRIPOS>UNITY_ATOM_ATTR
16 1
charge 1
18 1
charge -1
@<TRIPOS>BOND
     1    21    22    1
     2    22    19    1
     3    19    20    2
     4    19     1    1
     5     1     2    2
     6     2     3    1
     7     2     4    1
     8     4     5    1
     9     5     6    1
    10     5     7    2
    11     7    23    1
    12    23    24    2
    13    23    25    1
    14    25    26    1
    15     7     8    1
    16     8    10    1
    17    10    11   ar
    18    11    12   ar
    19    12    13   ar
    20    13    14   ar
    21    14    15   ar
    22    15    16    1
    23    16    17    2
    24    16    18    1
    25     8     1    1
    26    15    10   ar
    27     4     9    1
@<TRIPOS>MOLECULE
*****
 26 27 0 0 0
SMALL
GASTEIGER

@<TRIPOS>ATOM
      1 C          66.0398   92.8720   13.7105 C.2     1  UNL1        0.0709
      2 C          65.5819   91.9186   14.7741 C.2     1  UNL1        0.0283
      3 C          66.1157   92.0402   16.1707 C.3     1  UNL1        0.0470
      4 N          64.5903   90.8435   14.4412 N.pl3   1  UNL1       -0.3192
      5 C          64.0565   90.7218   13.0447 C.2     1  UNL1        0.0283
      6 C          63.0649   89.6467   12.7118 C.3     1  UNL1        0.0470
      7 C          64.5144   91.6752   11.9811 C.2     1  UNL1        0.0709
      8 C          65.5060   92.7503   12.3140 C.3     1  UNL1        0.0872
      9 H          64.2898   90.2177   15.1393 H       1  UNL1        0.1516
     10 C          65.9639   93.7038   11.2503 C.ar    1  UNL1        0.0554
     11 C          65.1864   94.9583   10.9825 C.ar    1  UNL1        0.0024
     12 C          65.6442   95.9117    9.9189 C.ar    1  UNL1        0.0001
     13 C          66.8796   95.6107    9.1230 C.ar    1  UNL1        0.0063
     14 C          67.6571   94.3562    9.3909 C.ar    1  UNL1        0.0749
     15 C          67.1992   93.4027   10.4546 C.ar    1  UNL1        0.2866
     16 N          67.9768   92.1482   10.7224 N.pl3   1  UNL1        0.0806
     17 O          68.6448   91.5757   11.9372 O.2     1  UNL1        0.0415
     18 O          68.2115   91.1610    9.6177 O.co2   1  UNL1       -0.5760
     19 C          67.0314   93.9471   14.0434 C.2     1  UNL1        0.3388
     20 O          66.6682   95.3892   13.8476 O.2     1  UNL1       -0.2452
     21 C          68.8527   94.1308   15.8871 C.3     1  UNL1        0.2559
     22 O          68.3863   93.5801   14.5721 O.3     1  UNL1       -0.4415
     23 C          63.9807   91.5536   10.5845 C.2     1  UNL1        0.3388
     24 O          64.3172   91.5437    9.8619 O.2     1  UNL1       -0.2452
     25 O          62.5049   91.4134   10.3552 O.3     1  UNL1       -0.4415
     26 C          61.9500   90.1342    9.8024 C.3     1  UNL1        0.2559
@<TRIPOS>UNITY_ATOM_ATTR
16 1
charge 1
18 1
charge -1
@<TRIPOS>BOND
     1    21    22    1
     2    22    19    1
     3    19    20    2
     4    19     1    1
     5     1     2    2
     6     2     3    1
     7     2     4    1
     8     4     5    1
     9     5     6    1
    10     5     7    2
    11     7    23    1
    12    23    24    2
    13    23    25    1
    14    25    26    1
    15     7     8    1
    16     8    10    1
    17    10    11   ar
    18    11    12   ar
    19    12    13   ar
    20    13    14   ar
    21    14    15   ar
    22    15    16    1
    23    16    17    2
    24    16    18    1
    25     8     1    1
    26    15    10   ar
    27     4     9    1
@<TRIPOS>MOLECULE
*****
 26 27 0 0 0
SMALL
GASTEIGER

@<TRIPOS>ATOM
      1 C          66.6346   92.1978   13.5949 C.2     1  UNL1        0.0709
      2 C          65.8107   91.7270   14.7565 C.2     1  UNL1        0.0283
      3 C          66.3902   91.7371   16.1401 C.3     1  UNL1        0.0470
      4 N          64.4073   91.2460   14.5347 N.pl3   1  UNL1       -0.3192
      5 C          63.8278   91.2358   13.1513 C.2     1  UNL1        0.0283
      6 C          62.4244   90.7549   12.9295 C.3     1  UNL1        0.0470
      7 C          64.6517   91.7066   11.9896 C.2     1  UNL1        0.0709
      8 C          66.0551   92.1876   12.2114 C.3     1  UNL1        0.0872
      9 H          63.8666   90.9370   15.2972 H       1  UNL1        0.1516
     10 C          66.8790   92.6584   11.0496 C.ar    1  UNL1        0.0554
     11 C          67.6841   91.6745   10.2535 C.ar    1  UNL1        0.0024
     12 C          68.5079   92.1453    9.0918 C.ar    1  UNL1        0.0001
     13 C          68.5267   93.5999    8.7262 C.ar    1  UNL1        0.0063
     14 C          67.7216   94.5838    9.5223 C.ar    1  UNL1        0.0749
     15 C          66.8977   94.1130   10.6840 C.ar    1  UNL1        0.2866
     16 N          66.0926   95.0969   11.4801 N.pl3   1  UNL1        0.0806
     17 O          66.0858   95.5142   12.9208 O.2     1  UNL1        0.0415
     18 O          65.0248   95.9093   10.8094 O.co2   1  UNL1       -0.5760
     19 C          68.0379   92.6787   13.8167 C.2     1  UNL1        0.3388
     20 O          69.1900   91.9389   13.2039 O.2     1  UNL1       -0.2452
     21 C          69.1793   93.8144   15.8557 C.3     1  UNL1        0.2559
     22 O          68.2893   93.8995   14.6512 O.3     1  UNL1       -0.4415
     23 C          64.0722   91.6965   10.6060 C.2     1  UNL1        0.3388
     24 O          64.3246   91.9617    9.8979 O.2     1  UNL1       -0.2452
     25 O          62.7259   91.0820   10.3613 O.3     1  UNL1       -0.4415
     26 C          62.6231   89.6517    9.9214 C.3     1  UNL1        0.2559
@<TRIPOS>UNITY_ATOM_ATTR
16 1
charge 1
18 1
charge -1
@<TRIPOS>BOND
     1    21    22    1
     2    22    19    1
     3    19    20    2
     4    19     1    1
     5     1     2    2
     6     2     3    1
     7     2     4    1
     8     4     5    1
     9     5     6    1
    10     5     7    2
    11     7    23    1
    12    23    24    2
    13    23    25    1
    14    25    26    1
    15     7     8    1
    16     8    10    1
    17    10    11   ar
    18    11    12   ar
    19    12    13   ar
    20    13    14   ar
    21    14    15   ar
    22    15    16    1
    23    16    17    2
    24    16    18    1
    25     8     1    1
    26    15    10   ar
    27     4     9    1
@<TRIPOS>MOLECULE
*****
 26 27 0 0 0
SMALL
GASTEIGER

@<TRIPOS>ATOM
      1 C          60.8361   86.5933    8.6472 C.2     1  UNL1        0.0709
      2 C          61.5056   85.4834    7.8924 C.2     1  UNL1        0.0283
      3 C          61.1242   85.2083    6.4680 C.3     1  UNL1        0.0470
      4 N          62.5565   84.6484    8.5621 N.pl3   1  UNL1       -0.3192
      5 C          62.9379   84.9233    9.9864 C.2     1  UNL1        0.0283
      6 C          63.9888   84.0883   10.6560 C.3     1  UNL1        0.0470
      7 C          62.2684   86.0333   10.7412 C.2     1  UNL1        0.0709
      8 C          61.2175   86.8683   10.0716 C.3     1  UNL1        0.0872
      9 H          62.9959   83.9198    8.0667 H       1  UNL1        0.1516
     10 C          60.5480   87.9783   10.8264 C.ar    1  UNL1        0.0554
     11 C          59.2768   87.7142   11.5776 C.ar    1  UNL1        0.0024
     12 C          58.6073   88.8241   12.3324 C.ar    1  UNL1        0.0001
     13 C          59.2089   90.1982   12.3360 C.ar    1  UNL1        0.0063
     14 C          60.4801   90.4623   11.5848 C.ar    1  UNL1        0.0749
     15 C          61.1496   89.3523   10.8300 C.ar    1  UNL1        0.2866
     16 N          62.4208   89.6164   10.0787 N.pl3   1  UNL1        0.0806
     17 O          63.4206   88.7416    9.3825 O.2     1  UNL1        0.0415
     18 O          62.9158   91.0227    9.9131 O.co2   1  UNL1       -0.5760
     19 C          59.7852   87.4283    7.9776 C.2     1  UNL1        0.3388
     20 O          58.4006   86.8827    7.7902 O.2     1  UNL1       -0.2452
     21 C          59.2427   89.4809    6.4801 C.3     1  UNL1        0.2559
     22 O          60.1189   88.8089    7.4953 O.3     1  UNL1       -0.4415
     23 C          62.6498   86.3083   12.1656 C.2     1  UNL1        0.3388
     24 O          63.0305   86.9055   12.5316 O.2     1  UNL1       -0.2452
     25 O          62.2969   85.3229   13.2401 O.3     1  UNL1       -0.4415
     26 C          63.3547   84.8300   14.1825 C.3     1  UNL1        0.2559
@<TRIPOS>UNITY_ATOM_ATTR
16 1
charge 1
18 1
charge -1
@<TRIPOS>BOND
     1    21    22    1
     2    22    19    1
     3    19    20    2
     4    19     1    1
     5     1     2    2
     6     2     3    1
     7     2     4    1
     8     4     5    1
     9     5     6    1
    10     5     7    2
    11     7    23    1
    12    23    24    2
    13    23    25    1
    14    25    26    1
    15     7     8    1
    16     8    10    1
    17    10    11   ar
    18    11    12   ar
    19    12    13   ar
    20    13    14   ar
    21    14    15   ar
    22    15    16    1
    23    16    17    2
    24    16    18    1
    25     8     1    1
    26    15    10   ar
    27     4     9    1
@<TRIPOS>MOLECULE
*****
 26 27 0 0 0
SMALL
GASTEIGER

@<TRIPOS>ATOM
      1 C          44.4331   73.3490   18.0141 C.2     1  UNL1        0.0709
      2 C          43.9496   71.9867   18.4143 C.2     1  UNL1        0.0283
      3 C          43.7305   70.9320   17.3704 C.3     1  UNL1        0.0470
      4 N          43.6851   71.6790   19.8584 N.pl3   1  UNL1       -0.3192
      5 C          43.9042   72.7336   20.9023 C.2     1  UNL1        0.0283
      6 C          43.6397   72.4259   22.3464 C.3     1  UNL1        0.0470
      7 C          44.3877   74.0959   20.5021 C.2     1  UNL1        0.0709
      8 C          44.6522   74.4036   19.0580 C.3     1  UNL1        0.0872
      9 H          43.3678   70.7848   20.1210 H       1  UNL1        0.1516
     10 C          45.1358   75.7661   18.6578 C.ar    1  UNL1        0.0554
     11 C          44.1697   76.7732   18.1080 C.ar    1  UNL1        0.0024
     12 C          44.6532   78.1355   17.7078 C.ar    1  UNL1        0.0001
     13 C          46.1028   78.4908   17.8575 C.ar    1  UNL1        0.0063
     14 C          47.0689   77.4837   18.4073 C.ar    1  UNL1        0.0749
     15 C          46.5854   76.1213   18.8075 C.ar    1  UNL1        0.2866
     16 N          47.5515   75.1141   19.3573 N.pl3   1  UNL1        0.0806
     17 O          47.6157   73.6156   19.3424 O.2     1  UNL1        0.0415
     18 O          48.7653   75.5724   20.1100 O.co2   1  UNL1       -0.5760
     19 C          44.6976   73.6567   16.5700 C.2     1  UNL1        0.3388
     20 O          46.0266   73.3186   15.9623 O.2     1  UNL1       -0.2452
     21 C          44.0109   75.2927   14.6722 C.3     1  UNL1        0.2559
     22 O          43.6330   74.3025   15.7336 O.3     1  UNL1       -0.4415
     23 C          44.6068   75.1506   21.5460 C.2     1  UNL1        0.3388
     24 O          45.1246   75.2369   22.1459 O.2     1  UNL1       -0.2452
     25 O          43.7266   76.3647   21.5818 O.3     1  UNL1       -0.4415
     26 C          44.2502   77.6545   22.1405 C.3     1  UNL1        0.2559
@<TRIPOS>UNITY_ATOM_ATTR
16 1
charge 1
18 1
charge -1
@<TRIPOS>BOND
     1    21    22    1
     2    22    19    1
     3    19    20    2
     4    19     1    1
     5     1     2    2
     6     2     3    1
     7     2     4    1
     8     4     5    1
     9     5     6    1
    10     5     7    2
    11     7    23    1
    12    23    24    2
    13    23    25    1
    14    25    26    1
    15     7     8    1
    16     8    10    1
    17    10    11   ar
    18    11    12   ar
    19    12    13   ar
    20    13    14   ar
    21    14    15   ar
    22    15    16    1
    23    16    17    2
    24    16    18    1
    25     8     1    1
    26    15    10   ar
    27     4     9    1
