@<TRIPOS>MOLECULE
*****
 30 33 0 0 0
SMALL
GASTEIGER

@<TRIPOS>ATOM
      1 C          63.4995   90.3238   15.8996 C.ar    1  UNL1        0.1434
      2 N          64.1488   91.4412   16.6610 N.ar    1  UNL1       -0.1337
      3 N          64.9985   92.2225   15.7031 N.ar    1  UNL1       -0.1337
      4 C          64.8744   91.5880   14.3496 C.ar    1  UNL1        0.1425
      5 N          63.9480   90.4145   14.4711 N.ar    1  UNL1       -0.3040
      6 C          65.5568   92.0464   13.0950 C.3     1  UNL1        0.0588
      7 C          66.9545   92.4564   12.7370 C.3     1  UNL1        0.0075
      8 C          66.5219   92.6946   11.3206 C.3     1  UNL1        0.0009
      9 C          65.1241   92.2846   11.6787 C.3     1  UNL1        0.0075
     10 C          67.2043   93.1530   10.0659 C.3     1  UNL1        0.0000
     11 C          67.1232   94.5921    9.6510 C.3     1  UNL1        0.0000
     12 C          67.4582   94.9868    8.2431 C.3     1  UNL1        0.0000
     13 C          66.7071   95.6367   10.6438 C.3     1  UNL1        0.0000
     14 C          63.5413   89.4935   13.3591 C.3     1  UNL1        0.0878
     15 C          62.9113   89.2787   12.0148 C.3     1  UNL1        0.0246
     16 C          63.4671   88.1127   12.7775 C.3     1  UNL1        0.0246
     17 C          62.5658   89.2961   16.4670 C.3     1  UNL1        0.0754
     18 C          63.1080   88.1563   17.2776 C.3     1  UNL1        0.0933
     19 N          63.6162   86.3015   15.5309 N.am    1  UNL1       -0.2842
     20 C          62.9411   86.7462   16.7943 C.2     1  UNL1        0.2266
     21 O          62.0990   85.7806   17.5746 O.2     1  UNL1       -0.2748
     22 H          64.1689   86.9352   15.0188 H       1  UNL1        0.1548
     23 C          62.9486   80.6609   13.5977 C.3     1  UNL1        0.0310
     24 C          63.1155   82.0710   14.0810 C.ar    1  UNL1       -0.0221
     25 C          61.9485   82.8038   14.6736 C.ar    1  UNL1       -0.0030
     26 C          62.1155   84.2140   15.1569 C.ar    1  UNL1        0.0140
     27 C          63.4493   84.8913   15.0476 C.ar    1  UNL1        0.0462
     28 C          64.6162   84.1586   14.4549 C.ar    1  UNL1       -0.0087
     29 C          65.9501   84.8359   14.3455 C.3     1  UNL1        0.0323
     30 C          64.4493   82.7484   13.9716 C.ar    1  UNL1       -0.0073
@<TRIPOS>BOND
     1    23    24    1
     2    24    25   ar
     3    25    26   ar
     4    26    27   ar
     5    27    19    1
     6    19    20   am
     7    20    21    2
     8    20    18    1
     9    18    17    1
    10    17     1    1
    11     1     2   ar
    12     2     3   ar
    13     3     4   ar
    14     6     4    1
    15     6     7    1
    16     7     8    1
    17     8    10    1
    18    10    11    1
    19    11    12    1
    20    11    13    1
    21     8     9    1
    22     4     5   ar
    23     5    14    1
    24    14    15    1
    25    15    16    1
    26    27    28   ar
    27    28    29    1
    28    28    30   ar
    29    30    24   ar
    30     5     1   ar
    31    16    14    1
    32     9     6    1
    33    19    22    1
@<TRIPOS>MOLECULE
*****
 30 33 0 0 0
SMALL
GASTEIGER

@<TRIPOS>ATOM
      1 C          63.8987   89.1244   13.7103 C.ar    1  UNL1        0.1434
      2 N          64.6011   88.5729   14.9155 N.ar    1  UNL1       -0.1337
      3 N          64.5468   87.0758   14.8390 N.ar    1  UNL1       -0.1337
      4 C          63.8109   86.7020   13.5865 C.ar    1  UNL1        0.1425
      5 N          63.4104   87.9681   12.8890 N.ar    1  UNL1       -0.3040
      6 C          63.5256   85.3071   13.1145 C.3     1  UNL1        0.0588
      7 C          62.4638   84.6704   12.2676 C.3     1  UNL1        0.0075
      8 C          63.1221   83.3344   12.4469 C.3     1  UNL1        0.0009
      9 C          64.1838   83.9713   13.2938 C.3     1  UNL1        0.0075
     10 C          62.8368   81.9395   11.9749 C.3     1  UNL1        0.0000
     11 C          62.3074   80.9163   12.9353 C.3     1  UNL1        0.0000
     12 C          62.4722   79.4548   12.6405 C.3     1  UNL1        0.0000
     13 C          61.6131   81.3545   14.1907 C.3     1  UNL1        0.0000
     14 C          62.6542   88.0616   11.5969 C.3     1  UNL1        0.0878
     15 C          61.4454   87.7315   10.7723 C.3     1  UNL1        0.0246
     16 C          62.5533   88.5535   10.1834 C.3     1  UNL1        0.0246
     17 C          63.7167   90.5770   13.3838 C.3     1  UNL1        0.0754
     18 C          64.9036   91.4939   13.3559 C.3     1  UNL1        0.0933
     19 N          66.2604   93.3733   12.1824 N.am    1  UNL1       -0.2842
     20 C          65.1518   92.3631   12.1588 C.2     1  UNL1        0.2266
     21 O          64.2914   92.2221   10.9382 O.2     1  UNL1       -0.2748
     22 H          66.8250   93.4659   12.9836 H       1  UNL1        0.1548
     23 C          67.2533   96.8501    7.3943 C.3     1  UNL1        0.0310
     24 C          67.0051   95.9809    8.5913 C.ar    1  UNL1       -0.0221
     25 C          66.1476   96.4805    9.7161 C.ar    1  UNL1       -0.0030
     26 C          65.8994   95.6113   10.9131 C.ar    1  UNL1        0.0140
     27 C          66.5086   94.2425   10.9854 C.ar    1  UNL1        0.0462
     28 C          67.3660   93.7429    9.8606 C.ar    1  UNL1       -0.0087
     29 C          67.9753   92.3741    9.9328 C.3     1  UNL1        0.0323
     30 C          67.6143   94.6121    8.6636 C.ar    1  UNL1       -0.0073
@<TRIPOS>BOND
     1    23    24    1
     2    24    25   ar
     3    25    26   ar
     4    26    27   ar
     5    27    19    1
     6    19    20   am
     7    20    21    2
     8    20    18    1
     9    18    17    1
    10    17     1    1
    11     1     2   ar
    12     2     3   ar
    13     3     4   ar
    14     6     4    1
    15     6     7    1
    16     7     8    1
    17     8    10    1
    18    10    11    1
    19    11    12    1
    20    11    13    1
    21     8     9    1
    22     4     5   ar
    23     5    14    1
    24    14    15    1
    25    15    16    1
    26    27    28   ar
    27    28    29    1
    28    28    30   ar
    29    30    24   ar
    30     5     1   ar
    31    16    14    1
    32     9     6    1
    33    19    22    1
@<TRIPOS>MOLECULE
*****
 30 33 0 0 0
SMALL
GASTEIGER

@<TRIPOS>ATOM
      1 C          64.4089   89.6019   14.2134 C.ar    1  UNL1        0.1434
      2 N          65.4607   90.1731   15.1175 N.ar    1  UNL1       -0.1337
      3 N          65.9964   91.4189   14.4764 N.ar    1  UNL1       -0.1337
      4 C          65.2756   91.6177   13.1760 C.ar    1  UNL1        0.1425
      5 N          64.2945   90.4948   13.0135 N.ar    1  UNL1       -0.3040
      6 C          65.4971   92.7421   12.2081 C.3     1  UNL1        0.0588
      7 C          65.1653   92.9799   10.7648 C.3     1  UNL1        0.0075
      8 C          65.8103   94.3321   10.8393 C.3     1  UNL1        0.0009
      9 C          66.1421   94.0942   12.2828 C.3     1  UNL1        0.0075
     10 C          66.0317   95.4565    9.8714 C.3     1  UNL1        0.0000
     11 C          67.2407   95.4547    8.9837 C.3     1  UNL1        0.0000
     12 C          67.5419   96.6466    8.1243 C.3     1  UNL1        0.0000
     13 C          68.1486   94.2610    8.9554 C.3     1  UNL1        0.0000
     14 C          63.3626   90.2991   11.8545 C.3     1  UNL1        0.0878
     15 C          62.6671   89.3888   10.8861 C.3     1  UNL1        0.0246
     16 C          62.4439   90.8705   10.8154 C.3     1  UNL1        0.0246
     17 C          63.6115   88.3566   14.4650 C.3     1  UNL1        0.0754
     18 C          64.2986   87.0243   14.5199 C.3     1  UNL1        0.0933
     19 N          64.4984   84.5632   13.7120 N.am    1  UNL1       -0.2842
     20 C          63.8658   85.9189   13.6031 C.2     1  UNL1        0.2266
     21 O          62.8002   86.1691   12.5774 O.2     1  UNL1       -0.2748
     22 H          65.1977   84.3990   14.3852 H       1  UNL1        0.1548
     23 C          62.7669   80.1413   10.0447 C.3     1  UNL1        0.0310
     24 C          63.1997   81.2468   10.9616 C.ar    1  UNL1       -0.0221
     25 C          64.2011   82.2607   10.4933 C.ar    1  UNL1       -0.0030
     26 C          64.6339   83.3662   11.4101 C.ar    1  UNL1        0.0140
     27 C          64.0655   83.4577   12.7952 C.ar    1  UNL1        0.0462
     28 C          63.0642   82.4438   13.2634 C.ar    1  UNL1       -0.0087
     29 C          62.4957   82.5353   14.6486 C.3     1  UNL1        0.0323
     30 C          62.6313   81.3383   12.3466 C.ar    1  UNL1       -0.0073
@<TRIPOS>BOND
     1    23    24    1
     2    24    25   ar
     3    25    26   ar
     4    26    27   ar
     5    27    19    1
     6    19    20   am
     7    20    21    2
     8    20    18    1
     9    18    17    1
    10    17     1    1
    11     1     2   ar
    12     2     3   ar
    13     3     4   ar
    14     6     4    1
    15     6     7    1
    16     7     8    1
    17     8    10    1
    18    10    11    1
    19    11    12    1
    20    11    13    1
    21     8     9    1
    22     4     5   ar
    23     5    14    1
    24    14    15    1
    25    15    16    1
    26    27    28   ar
    27    28    29    1
    28    28    30   ar
    29    30    24   ar
    30     5     1   ar
    31    16    14    1
    32     9     6    1
    33    19    22    1
@<TRIPOS>MOLECULE
*****
 30 33 0 0 0
SMALL
GASTEIGER

@<TRIPOS>ATOM
      1 C          64.2761   90.6659   13.6156 C.ar    1  UNL1        0.1434
      2 N          63.7699   91.6775   12.6304 N.ar    1  UNL1       -0.1337
      3 N          62.9844   90.9491   11.5804 N.ar    1  UNL1       -0.1337
      4 C          63.0051   89.4875   11.9166 C.ar    1  UNL1        0.1425
      5 N          63.8035   89.3124   13.1744 N.ar    1  UNL1       -0.3040
      6 C          62.3437   88.3929   11.1327 C.3     1  UNL1        0.0588
      7 C          62.2440   88.0417    9.6778 C.3     1  UNL1        0.0075
      8 C          61.4083   86.8450   10.0240 C.3     1  UNL1        0.0009
      9 C          61.5081   87.1964   11.4789 C.3     1  UNL1        0.0075
     10 C          60.7469   85.7505    9.2401 C.3     1  UNL1        0.0000
     11 C          60.3605   85.9810    7.8092 C.3     1  UNL1        0.0000
     12 C          59.2415   86.9230    7.4769 C.3     1  UNL1        0.0000
     13 C          61.0932   85.2695    6.7106 C.3     1  UNL1        0.0000
     14 C          64.0805   88.0122   13.8690 C.3     1  UNL1        0.0878
     15 C          64.5821   87.2597   15.0658 C.3     1  UNL1        0.0246
     16 C          64.0587   86.5123   13.8753 C.3     1  UNL1        0.0246
     17 C          65.1088   90.9568   14.8289 C.3     1  UNL1        0.0754
     18 C          66.4100   91.6895   14.6874 C.3     1  UNL1        0.0933
     19 N          66.6515   92.4569   12.2170 N.am    1  UNL1       -0.2842
     20 C          66.5456   92.7889   13.6760 C.2     1  UNL1        0.2266
     21 O          66.5752   94.2203   14.1235 O.2     1  UNL1       -0.2748
     22 H          66.6321   91.5175   11.9233 H       1  UNL1        0.1548
     23 C          67.1937   96.8545    8.1713 C.3     1  UNL1        0.0310
     24 C          67.0582   95.7551    9.1828 C.ar    1  UNL1       -0.0221
     25 C          66.2873   95.9906   10.4478 C.ar    1  UNL1       -0.0030
     26 C          66.1518   94.8912   11.4592 C.ar    1  UNL1        0.0140
     27 C          66.7871   93.5563   11.2056 C.ar    1  UNL1        0.0462
     28 C          67.5579   93.3208    9.9406 C.ar    1  UNL1       -0.0087
     29 C          68.1933   91.9858    9.6870 C.3     1  UNL1        0.0323
     30 C          67.6935   94.4202    8.9292 C.ar    1  UNL1       -0.0073
@<TRIPOS>BOND
     1    23    24    1
     2    24    25   ar
     3    25    26   ar
     4    26    27   ar
     5    27    19    1
     6    19    20   am
     7    20    21    2
     8    20    18    1
     9    18    17    1
    10    17     1    1
    11     1     2   ar
    12     2     3   ar
    13     3     4   ar
    14     6     4    1
    15     6     7    1
    16     7     8    1
    17     8    10    1
    18    10    11    1
    19    11    12    1
    20    11    13    1
    21     8     9    1
    22     4     5   ar
    23     5    14    1
    24    14    15    1
    25    15    16    1
    26    27    28   ar
    27    28    29    1
    28    28    30   ar
    29    30    24   ar
    30     5     1   ar
    31    16    14    1
    32     9     6    1
    33    19    22    1
@<TRIPOS>MOLECULE
*****
 30 33 0 0 0
SMALL
GASTEIGER

@<TRIPOS>ATOM
      1 C          62.9207   89.0709   12.2488 C.ar    1  UNL1        0.1434
      2 N          63.5937   88.9251   13.5813 N.ar    1  UNL1       -0.1337
      3 N          63.7840   87.4611   13.8470 N.ar    1  UNL1       -0.1337
      4 C          63.2285   86.7020   12.6785 C.ar    1  UNL1        0.1425
      5 N          62.6950   87.6969   11.6908 N.ar    1  UNL1       -0.3040
      6 C          63.2098   85.2101   12.5248 C.3     1  UNL1        0.0588
      7 C          62.4585   84.2423   11.6594 C.3     1  UNL1        0.0075
      8 C          63.1834   83.1001   12.3074 C.3     1  UNL1        0.0009
      9 C          63.9348   84.0679   13.1728 C.3     1  UNL1        0.0075
     10 C          63.1647   81.6081   12.1536 C.3     1  UNL1        0.0000
     11 C          62.3804   80.7649   13.1146 C.3     1  UNL1        0.0000
     12 C          61.5089   81.4174   14.1465 C.3     1  UNL1        0.0000
     13 C          62.4674   79.2691   13.0438 C.3     1  UNL1        0.0000
     14 C          62.0491   87.3744   10.3759 C.3     1  UNL1        0.0878
     15 C          62.0974   86.7052    9.0343 C.3     1  UNL1        0.0246
     16 C          60.8820   87.4852    9.4401 C.3     1  UNL1        0.0246
     17 C          62.5402   90.3636   11.5898 C.3     1  UNL1        0.0754
     18 C          63.5940   91.2173   10.9489 C.3     1  UNL1        0.0933
     19 N          65.0970   91.1682   13.0675 N.am    1  UNL1       -0.2842
     20 C          64.6766   91.8287   11.7881 C.2     1  UNL1        0.2266
     21 O          65.3388   93.1006   11.3478 O.2     1  UNL1       -0.2748
     22 H          64.6624   90.3335   13.3565 H       1  UNL1        0.1548
     23 C          69.4275   93.6137   16.4241 C.3     1  UNL1        0.0310
     24 C          68.3449   93.0023   15.5850 C.ar    1  UNL1       -0.0221
     25 C          68.6251   92.6190   14.1621 C.ar    1  UNL1       -0.0030
     26 C          67.5424   92.0076   13.3230 C.ar    1  UNL1        0.0140
     27 C          66.1796   91.7796   13.9067 C.ar    1  UNL1        0.0462
     28 C          65.8995   92.1629   15.3295 C.ar    1  UNL1       -0.0087
     29 C          64.5366   91.9349   15.9133 C.3     1  UNL1        0.0323
     30 C          66.9821   92.7743   16.1687 C.ar    1  UNL1       -0.0073
@<TRIPOS>BOND
     1    23    24    1
     2    24    25   ar
     3    25    26   ar
     4    26    27   ar
     5    27    19    1
     6    19    20   am
     7    20    21    2
     8    20    18    1
     9    18    17    1
    10    17     1    1
    11     1     2   ar
    12     2     3   ar
    13     3     4   ar
    14     6     4    1
    15     6     7    1
    16     7     8    1
    17     8    10    1
    18    10    11    1
    19    11    12    1
    20    11    13    1
    21     8     9    1
    22     4     5   ar
    23     5    14    1
    24    14    15    1
    25    15    16    1
    26    27    28   ar
    27    28    29    1
    28    28    30   ar
    29    30    24   ar
    30     5     1   ar
    31    16    14    1
    32     9     6    1
    33    19    22    1
@<TRIPOS>MOLECULE
*****
 30 33 0 0 0
SMALL
GASTEIGER

@<TRIPOS>ATOM
      1 C          62.3262   88.9729   11.2812 C.ar    1  UNL1        0.1434
      2 N          61.6342   88.4030   10.0785 N.ar    1  UNL1       -0.1337
      3 N          61.7244   86.9077   10.1569 N.ar    1  UNL1       -0.1337
      4 C          62.4722   86.5535   11.4081 C.ar    1  UNL1        0.1425
      5 N          62.8441   87.8298   12.1029 N.ar    1  UNL1       -0.3040
      6 C          62.7920   85.1665   11.8813 C.3     1  UNL1        0.0588
      7 C          62.7385   84.4578   13.2022 C.3     1  UNL1        0.0075
      8 C          63.2443   83.2049   12.5505 C.3     1  UNL1        0.0009
      9 C          63.2978   83.9137   11.2296 C.3     1  UNL1        0.0075
     10 C          63.5640   81.8179   13.0238 C.3     1  UNL1        0.0000
     11 C          62.4588   80.8301   13.2525 C.3     1  UNL1        0.0000
     12 C          61.3030   81.1896   14.1385 C.3     1  UNL1        0.0000
     13 C          62.5092   79.4827   12.5954 C.3     1  UNL1        0.0000
     14 C          63.6011   87.9431   13.3929 C.3     1  UNL1        0.0878
     15 C          64.5583   87.3648   14.3926 C.3     1  UNL1        0.0246
     16 C          63.9550   88.7179   14.6277 C.3     1  UNL1        0.0246
     17 C          62.4742   90.4299   11.6052 C.3     1  UNL1        0.0754
     18 C          63.5548   91.2380   10.9498 C.3     1  UNL1        0.0933
     19 N          65.0443   91.1880   13.0779 N.am    1  UNL1       -0.2842
     20 C          64.6565   91.8292   11.7785 C.2     1  UNL1        0.2266
     21 O          65.3705   93.0616   11.3077 O.2     1  UNL1       -0.2748
     22 H          64.5757   90.3792   13.3868 H       1  UNL1        0.1548
     23 C          69.4512   93.5526   16.3926 C.3     1  UNL1        0.0310
     24 C          68.3495   92.9615   15.5639 C.ar    1  UNL1       -0.0221
     25 C          68.6193   92.5360   14.1511 C.ar    1  UNL1       -0.0030
     26 C          67.5176   91.9449   13.3224 C.ar    1  UNL1        0.0140
     27 C          66.1460   91.7792   13.9066 C.ar    1  UNL1        0.0462
     28 C          65.8762   92.2046   15.3194 C.ar    1  UNL1       -0.0087
     29 C          64.5045   92.0389   15.9036 C.3     1  UNL1        0.0323
     30 C          66.9779   92.7958   16.1481 C.ar    1  UNL1       -0.0073
@<TRIPOS>BOND
     1    23    24    1
     2    24    25   ar
     3    25    26   ar
     4    26    27   ar
     5    27    19    1
     6    19    20   am
     7    20    21    2
     8    20    18    1
     9    18    17    1
    10    17     1    1
    11     1     2   ar
    12     2     3   ar
    13     3     4   ar
    14     6     4    1
    15     6     7    1
    16     7     8    1
    17     8    10    1
    18    10    11    1
    19    11    12    1
    20    11    13    1
    21     8     9    1
    22     4     5   ar
    23     5    14    1
    24    14    15    1
    25    15    16    1
    26    27    28   ar
    27    28    29    1
    28    28    30   ar
    29    30    24   ar
    30     5     1   ar
    31    16    14    1
    32     9     6    1
    33    19    22    1
@<TRIPOS>MOLECULE
*****
 30 33 0 0 0
SMALL
GASTEIGER

@<TRIPOS>ATOM
      1 C          60.2643   88.1694    8.3590 C.ar    1  UNL1        0.1434
      2 N          60.0246   88.9545    9.6145 N.ar    1  UNL1       -0.1337
      3 N          60.6603   88.2133   10.7532 N.ar    1  UNL1       -0.1337
      4 C          61.2929   86.9702   10.2015 C.ar    1  UNL1        0.1425
      5 N          61.0481   86.9431    8.7218 N.ar    1  UNL1       -0.3040
      6 C          62.0392   85.9358   10.9908 C.3     1  UNL1        0.0588
      7 C          62.7463   85.9173   12.3135 C.3     1  UNL1        0.0075
      8 C          63.0947   84.4729   12.1070 C.3     1  UNL1        0.0009
      9 C          62.3875   84.4915   10.7842 C.3     1  UNL1        0.0075
     10 C          63.8410   83.4385   12.8963 C.3     1  UNL1        0.0000
     11 C          63.1301   82.6418   13.9497 C.3     1  UNL1        0.0000
     12 C          62.8244   81.1922   13.7150 C.3     1  UNL1        0.0000
     13 C          62.7249   83.2947   15.2379 C.3     1  UNL1        0.0000
     14 C          61.5068   85.8768    7.7717 C.3     1  UNL1        0.0878
     15 C          61.2213   84.9358    6.6389 C.3     1  UNL1        0.0246
     16 C          62.5868   84.9708    7.2590 C.3     1  UNL1        0.0246
     17 C          59.8014   88.5448    6.9825 C.3     1  UNL1        0.0754
     18 C          58.9963   89.7937    6.7765 C.3     1  UNL1        0.0933
     19 N          60.6390   90.9736    5.1457 N.am    1  UNL1       -0.2842
     20 C          59.2367   90.6502    5.5688 C.2     1  UNL1        0.2266
     21 O          58.0747   91.1834    4.7842 O.2     1  UNL1       -0.2748
     22 H          61.4016   90.6236    5.6607 H       1  UNL1        0.1548
     23 C          61.6004   94.3999    0.3149 C.3     1  UNL1        0.0310
     24 C          61.3600   93.5433    1.5226 C.ar    1  UNL1       -0.0221
     25 C          60.0979   93.7041    2.3170 C.ar    1  UNL1       -0.0030
     26 C          59.8575   92.8475    3.5247 C.ar    1  UNL1        0.0140
     27 C          60.8793   91.8302    3.9380 C.ar    1  UNL1        0.0462
     28 C          62.1415   91.6694    3.1437 C.ar    1  UNL1       -0.0087
     29 C          63.1634   90.6520    3.5570 C.3     1  UNL1        0.0323
     30 C          62.3818   92.5260    1.9360 C.ar    1  UNL1       -0.0073
@<TRIPOS>BOND
     1    23    24    1
     2    24    25   ar
     3    25    26   ar
     4    26    27   ar
     5    27    19    1
     6    19    20   am
     7    20    21    2
     8    20    18    1
     9    18    17    1
    10    17     1    1
    11     1     2   ar
    12     2     3   ar
    13     3     4   ar
    14     6     4    1
    15     6     7    1
    16     7     8    1
    17     8    10    1
    18    10    11    1
    19    11    12    1
    20    11    13    1
    21     8     9    1
    22     4     5   ar
    23     5    14    1
    24    14    15    1
    25    15    16    1
    26    27    28   ar
    27    28    29    1
    28    28    30   ar
    29    30    24   ar
    30     5     1   ar
    31    16    14    1
    32     9     6    1
    33    19    22    1
@<TRIPOS>MOLECULE
*****
 30 33 0 0 0
SMALL
GASTEIGER

@<TRIPOS>ATOM
      1 C          59.4592   87.9193    7.4437 C.ar    1  UNL1        0.1434
      2 N          59.3827   86.5231    6.9008 N.ar    1  UNL1       -0.1337
      3 N          60.1270   85.6196    7.8387 N.ar    1  UNL1       -0.1337
      4 C          60.6635   86.4575    8.9613 C.ar    1  UNL1        0.1425
      5 N          60.2508   87.8787    8.7171 N.ar    1  UNL1       -0.3040
      6 C          61.4709   85.9612   10.1240 C.3     1  UNL1        0.0588
      7 C          62.6084   84.9978   10.2911 C.3     1  UNL1        0.0075
      8 C          62.6128   85.2593   11.7682 C.3     1  UNL1        0.0009
      9 C          61.4753   86.2227   11.6010 C.3     1  UNL1        0.0075
     10 C          63.4203   84.7631   12.9309 C.3     1  UNL1        0.0000
     11 C          62.9818   83.5405   13.6811 C.3     1  UNL1        0.0000
     12 C          62.7076   82.2647   12.9414 C.3     1  UNL1        0.0000
     13 C          62.8175   83.5937   15.1711 C.3     1  UNL1        0.0000
     14 C          60.5731   89.0532    9.5928 C.3     1  UNL1        0.0878
     15 C          61.5737   90.0202   10.1530 C.3     1  UNL1        0.0246
     16 C          60.1305   90.1207   10.5493 C.3     1  UNL1        0.0246
     17 C          58.8509   89.1415    6.8222 C.3     1  UNL1        0.0754
     18 C          59.6731   90.3846    6.6520 C.3     1  UNL1        0.0933
     19 N          61.0680   91.4755    4.7509 N.am    1  UNL1       -0.2842
     20 C          59.7413   91.0615    5.3151 C.2     1  UNL1        0.2266
     21 O          58.4827   91.3243    4.5424 O.2     1  UNL1       -0.2748
     22 H          61.8940   91.3030    5.2580 H       1  UNL1        0.1548
     23 C          61.3409   94.1828   -0.5966 C.3     1  UNL1        0.0310
     24 C          61.2727   93.5060    0.7403 C.ar    1  UNL1       -0.0221
     25 C          60.0646   93.6855    1.6110 C.ar    1  UNL1       -0.0030
     26 C          59.9964   93.0087    2.9479 C.ar    1  UNL1        0.0140
     27 C          61.1362   92.1523    3.4140 C.ar    1  UNL1        0.0462
     28 C          62.3443   91.9728    2.5433 C.ar    1  UNL1       -0.0087
     29 C          63.4843   91.1164    3.0094 C.3     1  UNL1        0.0323
     30 C          62.4125   92.6496    1.2064 C.ar    1  UNL1       -0.0073
@<TRIPOS>BOND
     1    23    24    1
     2    24    25   ar
     3    25    26   ar
     4    26    27   ar
     5    27    19    1
     6    19    20   am
     7    20    21    2
     8    20    18    1
     9    18    17    1
    10    17     1    1
    11     1     2   ar
    12     2     3   ar
    13     3     4   ar
    14     6     4    1
    15     6     7    1
    16     7     8    1
    17     8    10    1
    18    10    11    1
    19    11    12    1
    20    11    13    1
    21     8     9    1
    22     4     5   ar
    23     5    14    1
    24    14    15    1
    25    15    16    1
    26    27    28   ar
    27    28    29    1
    28    28    30   ar
    29    30    24   ar
    30     5     1   ar
    31    16    14    1
    32     9     6    1
    33    19    22    1
@<TRIPOS>MOLECULE
*****
 30 33 0 0 0
SMALL
GASTEIGER

@<TRIPOS>ATOM
      1 C          63.4577   88.0638   13.2597 C.ar    1  UNL1        0.1434
      2 N          63.1801   89.3682   12.5732 N.ar    1  UNL1       -0.1337
      3 N          62.6058   89.0671   11.2206 N.ar    1  UNL1       -0.1337
      4 C          62.5284   87.5766   11.0712 C.ar    1  UNL1        0.1425
      5 N          63.0549   86.9565   12.3315 N.ar    1  UNL1       -0.3040
      6 C          62.0147   86.8361    9.8721 C.3     1  UNL1        0.0588
      7 C          62.4415   85.6112    9.1189 C.3     1  UNL1        0.0075
      8 C          61.2881   85.7889    8.1763 C.3     1  UNL1        0.0009
      9 C          60.8613   87.0139    8.9297 C.3     1  UNL1        0.0075
     10 C          60.7744   85.0485    6.9773 C.3     1  UNL1        0.0000
     11 C          61.7372   84.4833    5.9756 C.3     1  UNL1        0.0000
     12 C          63.2145   84.6326    6.1883 C.3     1  UNL1        0.0000
     13 C          61.2228   83.7687    4.7612 C.3     1  UNL1        0.0000
     14 C          63.1602   85.4871   12.6139 C.3     1  UNL1        0.0878
     15 C          63.7445   84.1421   12.2981 C.3     1  UNL1        0.0246
     16 C          62.7580   84.2869   13.4189 C.3     1  UNL1        0.0246
     17 C          64.0365   87.8961   14.6334 C.3     1  UNL1        0.0754
     18 C          64.3299   89.1019   15.4760 C.3     1  UNL1        0.0933
     19 N          65.6638   90.7017   13.9232 N.am    1  UNL1       -0.2842
     20 C          64.4969   90.4455   14.8302 C.2     1  UNL1        0.2266
     21 O          63.4971   91.5327   15.0915 O.2     1  UNL1       -0.2748
     22 H          66.3200   89.9881   13.7517 H       1  UNL1        0.1548
     23 C          66.3320   96.0759   11.3401 C.3     1  UNL1        0.0310
     24 C          66.1649   94.7323   11.9859 C.ar    1  UNL1       -0.0221
     25 C          65.5584   93.5989   11.2130 C.ar    1  UNL1       -0.0030
     26 C          65.3913   92.2554   11.8587 C.ar    1  UNL1        0.0140
     27 C          65.8308   92.0453   13.2774 C.ar    1  UNL1        0.0462
     28 C          66.4373   93.1787   14.0503 C.ar    1  UNL1       -0.0087
     29 C          66.8768   92.9686   15.4691 C.3     1  UNL1        0.0323
     30 C          66.6044   94.5222   13.4045 C.ar    1  UNL1       -0.0073
@<TRIPOS>BOND
     1    23    24    1
     2    24    25   ar
     3    25    26   ar
     4    26    27   ar
     5    27    19    1
     6    19    20   am
     7    20    21    2
     8    20    18    1
     9    18    17    1
    10    17     1    1
    11     1     2   ar
    12     2     3   ar
    13     3     4   ar
    14     6     4    1
    15     6     7    1
    16     7     8    1
    17     8    10    1
    18    10    11    1
    19    11    12    1
    20    11    13    1
    21     8     9    1
    22     4     5   ar
    23     5    14    1
    24    14    15    1
    25    15    16    1
    26    27    28   ar
    27    28    29    1
    28    28    30   ar
    29    30    24   ar
    30     5     1   ar
    31    16    14    1
    32     9     6    1
    33    19    22    1
