@<TRIPOS>MOLECULE
*****
 51 56 0 0 0
SMALL
GASTEIGER

@<TRIPOS>ATOM
      1 C          63.4624   87.5600   13.3061 C.ar    1  UNL1        0.0818
      2 N          63.9880   86.5859   14.3185 N.ar    1  UNL1       -0.2441
      3 C          63.7944   85.1127   14.1127 C.ar    1  UNL1        0.1026
      4 C          63.0754   84.6138   12.8945 C.ar    1  UNL1        0.0903
      5 C          62.5498   85.5879   11.8821 C.ar    1  UNL1        0.0042
      6 C          62.7433   87.0611   12.0880 C.ar    1  UNL1        0.0136
      7 C          62.2178   88.0353   11.0757 C.3     1  UNL1        0.1026
      8 C          62.2811   89.5306   11.1754 C.3     1  UNL1        0.0264
      9 C          61.6391   90.1046    9.9472 C.3     1  UNL1        0.0260
     10 C          61.1790   88.9640    9.0885 C.3     1  UNL1        0.1232
     11 C          60.4980   88.6138    7.7987 C.3     1  UNL1        0.2107
     12 O          60.4347   87.1186    7.6990 O.3     1  UNL1       -0.4320
     13 C          61.0767   86.5445    8.9271 C.2     1  UNL1        0.4054
     14 O          61.2315   85.0860    9.2413 O.2     1  UNL1       -0.2262
     15 N          61.5367   87.6851    9.7859 N.am    1  UNL1       -0.2416
     16 C          59.9724   89.5880    6.7864 C.ar    1  UNL1        0.0189
     17 C          60.9230   90.3201    5.8861 C.ar    1  UNL1        0.0031
     18 C          60.3974   91.2943    4.8738 C.ar    1  UNL1        0.0712
     19 C          58.9213   91.5364    4.7617 C.ar    1  UNL1        0.0077
     20 C          57.9708   90.8044    5.6620 C.ar    1  UNL1        0.0712
     21 C          58.4963   89.8302    6.6743 C.ar    1  UNL1        0.0031
     22 C          61.3481   92.0263    3.9735 C.3     1  UNL1        0.4186
     23 F          62.2988   92.7582    3.0732 F       1  UNL1       -0.1659
     24 F          60.3015   93.0697    3.7167 F       1  UNL1       -0.1659
     25 F          62.3947   90.9828    4.2303 F       1  UNL1       -0.1659
     26 C          56.4947   91.0465    5.5500 C.3     1  UNL1        0.4186
     27 F          55.0187   91.2886    5.4380 F       1  UNL1       -0.1659
     28 F          56.7609   92.3391    4.8371 F       1  UNL1       -0.1659
     29 F          56.2286   89.7539    6.2629 F       1  UNL1       -0.1659
     30 C          63.0871   89.7017   14.7284 C.ar    1  UNL1        0.1401
     31 C          63.2807   91.1748   14.9343 C.ar    1  UNL1        0.0369
     32 C          64.0430   91.9795   13.9236 C.ar    1  UNL1        0.0031
     33 C          64.6118   91.3110   12.7073 C.ar    1  UNL1       -0.0001
     34 C          64.4183   89.8379   12.5014 C.ar    1  UNL1        0.0045
     35 C          63.6559   89.0332   13.5120 C.ar    1  UNL1        0.0513
     36 C          65.3741   92.1158   11.6967 C.ar    1  UNL1       -0.0039
     37 C          64.6553   92.7374   10.5362 C.ar    1  UNL1       -0.0003
     38 C          65.4176   93.5422    9.5255 C.ar    1  UNL1        0.0011
     39 C          66.8988   93.7253    9.6755 C.ar    1  UNL1        0.0137
     40 C          67.6177   93.1037   10.8361 C.ar    1  UNL1       -0.0031
     41 C          66.8553   92.2989   11.8467 C.ar    1  UNL1       -0.0218
     42 C          67.5743   91.6774   13.0072 C.3     1  UNL1        0.0310
     43 C          67.6611   94.5301    8.6649 C.2     1  UNL1        0.0729
     44 O          68.3705   93.8402    7.5376 O.co2   1  UNL1       -0.5446
     45 O          67.7140   96.0246    8.7817 O.co2   1  UNL1       -0.5446
     46 C          62.9863   88.4795   17.0189 C.3     1  UNL1        0.2525
     47 O          62.3248   88.8969   15.7390 O.3     1  UNL1       -0.4714
     48 C          62.8818   83.1407   12.6887 C.3     1  UNL1        0.4200
     49 F          62.6883   81.6675   12.4828 F       1  UNL1       -0.1658
     50 F          63.3528   83.2769   11.2711 F       1  UNL1       -0.1658
     51 F          62.4108   83.0044   14.1063 F       1  UNL1       -0.1658
@<TRIPOS>UNITY_ATOM_ATTR
44 1
charge -1
@<TRIPOS>BOND
     1    46    47    1
     2    47    30    1
     3    30    31   ar
     4    31    32   ar
     5    32    33   ar
     6    33    36    1
     7    36    37   ar
     8    37    38   ar
     9    38    39   ar
    10    39    43    1
    11    43    44   ar
    12    43    45   ar
    13    39    40   ar
    14    40    41   ar
    15    41    42    1
    16    33    34   ar
    17    34    35   ar
    18    35     1    1
    19     1     2   ar
    20     2     3   ar
    21     3     4   ar
    22     4    48    1
    23    48    49    1
    24    48    50    1
    25    48    51    1
    26     4     5   ar
    27     5     6   ar
    28     7     6    1
    29     7     8    1
    30     8     9    1
    31    10     9    1
    32    10    11    1
    33    11    16    1
    34    16    17   ar
    35    17    18   ar
    36    18    22    1
    37    22    23    1
    38    22    24    1
    39    22    25    1
    40    18    19   ar
    41    19    20   ar
    42    20    26    1
    43    26    27    1
    44    26    28    1
    45    26    29    1
    46    20    21   ar
    47    11    12    1
    48    12    13    1
    49    13    14    2
    50    13    15   am
    51    35    30   ar
    52     6     1   ar
    53    15     7    1
    54    41    36   ar
    55    15    10    1
    56    21    16   ar
@<TRIPOS>MOLECULE
*****
 51 56 0 0 0
SMALL
GASTEIGER

@<TRIPOS>ATOM
      1 C          63.4652   87.5668   13.3095 C.ar    1  UNL1        0.0818
      2 N          63.9905   86.5945   14.3239 N.ar    1  UNL1       -0.2441
      3 C          63.7950   85.1211   14.1219 C.ar    1  UNL1        0.1026
      4 C          63.0742   84.6200   12.9056 C.ar    1  UNL1        0.0903
      5 C          62.5489   85.5922   11.8913 C.ar    1  UNL1        0.0042
      6 C          62.7444   87.0656   12.0933 C.ar    1  UNL1        0.0136
      7 C          62.2191   88.0379   11.0790 C.3     1  UNL1        0.1026
      8 C          62.2854   89.5334   11.1743 C.3     1  UNL1        0.0264
      9 C          61.6426   90.1051    9.9455 C.3     1  UNL1        0.0260
     10 C          61.1790   88.9629    9.0908 C.3     1  UNL1        0.1232
     11 C          60.4952   88.6104    7.8031 C.3     1  UNL1        0.2107
     12 O          60.4290   87.1149    7.7078 O.3     1  UNL1       -0.4320
     13 C          61.0718   86.5432    8.9365 C.2     1  UNL1        0.4054
     14 O          61.2243   85.0853    9.2547 O.2     1  UNL1       -0.2262
     15 N          61.5353   87.6853    9.7913 N.am    1  UNL1       -0.2416
     16 C          59.9699   89.5827    6.7888 C.ar    1  UNL1        0.0189
     17 C          58.4938   89.8242    6.6756 C.ar    1  UNL1        0.0031
     18 C          57.9686   90.7965    5.6614 C.ar    1  UNL1        0.0712
     19 C          58.9193   91.5272    4.7602 C.ar    1  UNL1        0.0077
     20 C          60.3954   91.2857    4.8734 C.ar    1  UNL1        0.0712
     21 C          60.9207   90.3134    5.8877 C.ar    1  UNL1        0.0031
     22 C          56.4924   91.0380    5.5483 C.3     1  UNL1        0.4186
     23 F          55.0163   91.2796    5.4352 F       1  UNL1       -0.1659
     24 F          56.2264   89.7485    6.2669 F       1  UNL1       -0.1659
     25 F          56.7585   92.3275    4.8296 F       1  UNL1       -0.1659
     26 C          61.3462   92.0164    3.9723 C.3     1  UNL1        0.4186
     27 F          62.2970   92.7471    3.0712 F       1  UNL1       -0.1659
     28 F          62.3903   90.9695    4.2250 F       1  UNL1       -0.1659
     29 F          60.3021   93.0633    3.7196 F       1  UNL1       -0.1659
     30 C          63.0917   89.7129   14.7255 C.ar    1  UNL1        0.1401
     31 C          63.2872   91.1863   14.9275 C.ar    1  UNL1        0.0369
     32 C          64.0518   91.9871   13.9154 C.ar    1  UNL1        0.0031
     33 C          64.6207   91.3144   12.7014 C.ar    1  UNL1       -0.0001
     34 C          64.4252   89.8410   12.4995 C.ar    1  UNL1        0.0045
     35 C          63.6607   89.0402   13.5115 C.ar    1  UNL1        0.0513
     36 C          65.3852   92.1153   11.6894 C.ar    1  UNL1       -0.0039
     37 C          64.6680   92.7370   10.5280 C.ar    1  UNL1       -0.0003
     38 C          65.4324   93.5379    9.5159 C.ar    1  UNL1        0.0011
     39 C          66.9142   93.7170    9.6653 C.ar    1  UNL1        0.0137
     40 C          67.6315   93.0952   10.8268 C.ar    1  UNL1       -0.0031
     41 C          66.8670   92.2943   11.8388 C.ar    1  UNL1       -0.0218
     42 C          67.5843   91.6726   13.0002 C.3     1  UNL1        0.0310
     43 C          67.6787   94.5178    8.6532 C.2     1  UNL1        0.0729
     44 O          68.3975   93.8230    7.5350 O.co2   1  UNL1       -0.5446
     45 O          67.7243   96.0133    8.7595 O.co2   1  UNL1       -0.5446
     46 C          62.9949   88.4750   17.0077 C.3     1  UNL1        0.2525
     47 O          62.3272   88.9121   15.7376 O.3     1  UNL1       -0.4714
     48 C          62.8787   83.1466   12.7036 C.3     1  UNL1        0.4200
     49 F          62.6832   81.6732   12.5017 F       1  UNL1       -0.1658
     50 F          62.8804   83.3501   11.2175 F       1  UNL1       -0.1658
     51 F          62.8771   82.9430   14.1898 F       1  UNL1       -0.1658
@<TRIPOS>UNITY_ATOM_ATTR
44 1
charge -1
@<TRIPOS>BOND
     1    46    47    1
     2    47    30    1
     3    30    31   ar
     4    31    32   ar
     5    32    33   ar
     6    33    36    1
     7    36    37   ar
     8    37    38   ar
     9    38    39   ar
    10    39    43    1
    11    43    44   ar
    12    43    45   ar
    13    39    40   ar
    14    40    41   ar
    15    41    42    1
    16    33    34   ar
    17    34    35   ar
    18    35     1    1
    19     1     2   ar
    20     2     3   ar
    21     3     4   ar
    22     4    48    1
    23    48    49    1
    24    48    50    1
    25    48    51    1
    26     4     5   ar
    27     5     6   ar
    28     7     6    1
    29     7     8    1
    30     8     9    1
    31    10     9    1
    32    10    11    1
    33    11    16    1
    34    16    17   ar
    35    17    18   ar
    36    18    22    1
    37    22    23    1
    38    22    24    1
    39    22    25    1
    40    18    19   ar
    41    19    20   ar
    42    20    26    1
    43    26    27    1
    44    26    28    1
    45    26    29    1
    46    20    21   ar
    47    11    12    1
    48    12    13    1
    49    13    14    2
    50    13    15   am
    51    35    30   ar
    52     6     1   ar
    53    15     7    1
    54    41    36   ar
    55    15    10    1
    56    21    16   ar
