@<TRIPOS>MOLECULE
*****
 31 36 0 0 0
SMALL
GASTEIGER

@<TRIPOS>ATOM
      1 C          59.3297   90.5102    5.5671 C.ar    1  UNL1        0.1383
      2 C          58.5204   91.6026    4.9333 C.ar    1  UNL1        0.0400
      3 C          59.1393   92.4865    3.8914 C.ar    1  UNL1        0.0397
      4 C          60.5677   92.2781    3.4833 C.ar    1  UNL1        0.1344
      5 C          61.3770   91.1858    4.1172 C.ar    1  UNL1        0.0149
      6 C          60.7580   90.3019    5.1591 C.ar    1  UNL1        0.0356
      7 C          62.8053   90.9774    3.7092 C.3     1  UNL1        0.0331
      8 C          63.4243   91.8614    2.6672 C.3     1  UNL1        0.0449
      9 C          62.6150   92.9537    2.0334 C.3     1  UNL1        0.1361
     10 C          64.0432   92.7454    1.6254 C.3     1  UNL1        0.0574
     11 C          64.6622   93.6293    0.5835 C.3     1  UNL1        0.0756
     12 N          63.8528   94.7216   -0.0503 N.3     1  UNL1       -0.2737
     13 C          62.4245   94.9300    0.3577 C.3     1  UNL1        0.0756
     14 C          61.8056   94.0460    1.3995 C.3     1  UNL1        0.0574
     15 O          61.1866   93.1621    2.4415 O.3     1  UNL1       -0.4828
     16 C          64.4718   95.6056   -1.0923 C.3     1  UNL1        0.0575
     17 C          65.4086   96.7769   -1.0691 C.3     1  UNL1        0.0160
     18 C          65.3471   96.8556   -2.5658 C.3     1  UNL1        0.0028
     19 C          64.4104   95.6843   -2.5889 C.3     1  UNL1        0.0160
     20 O          58.7108   89.6263    6.6090 O.3     1  UNL1       -0.4791
     21 O          62.6810   88.0716   12.0007 O.2     1  UNL1       -0.2749
     22 C          62.1287   87.2073   10.9063 C.2     1  UNL1        0.2251
     23 N          61.2742   87.8120    9.8319 N.am    1  UNL1       -0.2793
     24 C          60.9720   89.2811    9.8521 C.3     1  UNL1        0.0971
     25 C          60.1176   89.8859    8.7778 C.3     1  UNL1        0.0650
     26 C          59.5653   89.0215    7.6833 C.3     1  UNL1        0.1693
     27 C          59.8675   87.5524    7.6632 C.3     1  UNL1        0.0650
     28 C          60.7220   86.9477    8.7374 C.3     1  UNL1        0.0971
     29 C          62.4309   85.7382   10.8861 C.3     1  UNL1        0.0767
     30 C          62.9888   84.5363   10.1831 C.3     1  UNL1        0.0096
     31 C          62.3965   84.3956   11.5541 C.3     1  UNL1        0.0096
@<TRIPOS>BOND
     1    21    22    2
     2    22    29    1
     3    29    30    1
     4    30    31    1
     5    22    23   am
     6    23    24    1
     7    24    25    1
     8    25    26    1
     9    26    20    1
    10    20     1    1
    11     1     2   ar
    12     2     3   ar
    13     3     4   ar
    14     4     5   ar
    15     5     6   ar
    16     5     7    1
    17     7     8    1
    18     8     9    1
    19     9    10    1
    20    10    11    1
    21    11    12    1
    22    12    16    1
    23    16    17    1
    24    17    18    1
    25    18    19    1
    26    12    13    1
    27    13    14    1
    28     9    15    1
    29    26    27    1
    30    27    28    1
    31    31    29    1
    32    28    23    1
    33     6     1   ar
    34    14     9    1
    35    15     4    1
    36    19    16    1
@<TRIPOS>MOLECULE
*****
 31 36 0 0 0
SMALL
GASTEIGER

@<TRIPOS>ATOM
      1 C          59.0773   89.9174    6.3539 C.ar    1  UNL1        0.1383
      2 C          57.9613   90.7233    5.7581 C.ar    1  UNL1        0.0400
      3 C          58.2330   91.6421    4.6040 C.ar    1  UNL1        0.0397
      4 C          59.6208   91.7550    4.0457 C.ar    1  UNL1        0.1344
      5 C          60.7367   90.9490    4.6416 C.ar    1  UNL1        0.0149
      6 C          60.4649   90.0302    5.7957 C.ar    1  UNL1        0.0356
      7 C          62.1243   91.0618    4.0833 C.3     1  UNL1        0.0331
      8 C          62.3961   91.9806    2.9292 C.3     1  UNL1        0.0449
      9 C          61.2802   92.7866    2.3333 C.3     1  UNL1        0.1361
     10 C          62.6678   92.8994    1.7751 C.3     1  UNL1        0.0574
     11 C          62.9395   93.8182    0.6210 C.3     1  UNL1        0.0756
     12 N          61.8236   94.6242    0.0252 N.3     1  UNL1       -0.2737
     13 C          60.4359   94.5114    0.5834 C.3     1  UNL1        0.0756
     14 C          60.1642   93.5926    1.7375 C.3     1  UNL1        0.0574
     15 O          59.8925   92.6738    2.8916 O.3     1  UNL1       -0.4828
     16 C          62.0953   95.5430   -1.1290 C.3     1  UNL1        0.0575
     17 C          61.4011   95.8572   -2.4210 C.3     1  UNL1        0.0160
     18 C          62.4797   96.8425   -2.7611 C.3     1  UNL1        0.0028
     19 C          63.1740   96.5283   -1.4691 C.3     1  UNL1        0.0160
     20 O          58.8056   88.9986    7.5080 O.3     1  UNL1       -0.4791
     21 O          63.1979   87.1124   12.4477 O.2     1  UNL1       -0.2749
     22 C          62.8235   88.4705   11.9327 C.2     1  UNL1        0.2251
     23 N          61.8190   88.6026   10.8265 N.am    1  UNL1       -0.2793
     24 C          61.1889   87.3764   10.2353 C.3     1  UNL1        0.0971
     25 C          60.1844   87.5084    9.1292 C.3     1  UNL1        0.0650
     26 C          59.8101   88.8665    8.6142 C.3     1  UNL1        0.1693
     27 C          60.4402   90.0927    9.2054 C.3     1  UNL1        0.0650
     28 C          61.4446   89.9607   10.3115 C.3     1  UNL1        0.0971
     29 C          63.4536   89.6967   12.5239 C.3     1  UNL1        0.0767
     30 C          63.7390   91.1681   12.4639 C.3     1  UNL1        0.0096
     31 C          64.2595   90.3491   13.6077 C.3     1  UNL1        0.0096
@<TRIPOS>BOND
     1    21    22    2
     2    22    29    1
     3    29    30    1
     4    30    31    1
     5    22    23   am
     6    23    24    1
     7    24    25    1
     8    25    26    1
     9    26    20    1
    10    20     1    1
    11     1     2   ar
    12     2     3   ar
    13     3     4   ar
    14     4     5   ar
    15     5     6   ar
    16     5     7    1
    17     7     8    1
    18     8     9    1
    19     9    10    1
    20    10    11    1
    21    11    12    1
    22    12    16    1
    23    16    17    1
    24    17    18    1
    25    18    19    1
    26    12    13    1
    27    13    14    1
    28     9    15    1
    29    26    27    1
    30    27    28    1
    31    31    29    1
    32    28    23    1
    33     6     1   ar
    34    14     9    1
    35    15     4    1
    36    19    16    1
@<TRIPOS>MOLECULE
*****
 31 36 0 0 0
SMALL
GASTEIGER

@<TRIPOS>ATOM
      1 C          59.2712   89.6070    6.8420 C.ar    1  UNL1        0.1383
      2 C          58.9477   88.1436    6.7811 C.ar    1  UNL1        0.0400
      3 C          59.5322   87.2034    7.7932 C.ar    1  UNL1        0.0397
      4 C          60.4404   87.7267    8.8663 C.ar    1  UNL1        0.1344
      5 C          60.7640   89.1901    8.9272 C.ar    1  UNL1        0.0149
      6 C          60.1794   90.1303    7.9151 C.ar    1  UNL1        0.0356
      7 C          61.6721   89.7134   10.0003 C.3     1  UNL1        0.0331
      8 C          62.2567   88.7733   11.0124 C.3     1  UNL1        0.0449
      9 C          61.9331   87.3099   10.9515 C.3     1  UNL1        0.1361
     10 C          62.8413   87.8331   12.0245 C.3     1  UNL1        0.0574
     11 C          63.4258   86.8930   13.0366 C.3     1  UNL1        0.0756
     12 N          63.1023   85.4296   12.9757 N.3     1  UNL1       -0.2737
     13 C          62.1941   84.9063   11.9027 C.3     1  UNL1        0.0756
     14 C          61.6096   85.8464   10.8906 C.3     1  UNL1        0.0574
     15 O          61.0250   86.7866    9.8784 O.3     1  UNL1       -0.4828
     16 C          63.6869   84.4894   13.9879 C.3     1  UNL1        0.0575
     17 C          63.1471   83.3804   14.8415 C.3     1  UNL1        0.0160
     18 C          64.5137   83.1600   15.4193 C.3     1  UNL1        0.0028
     19 C          65.0535   84.2690   14.5657 C.3     1  UNL1        0.0160
     20 O          58.6867   90.5471    5.8299 O.3     1  UNL1       -0.4791
     21 O          63.7044   92.8937    1.7597 O.2     1  UNL1       -0.2749
     22 C          62.2597   93.2841    1.8622 C.2     1  UNL1        0.2251
     23 N          61.3664   92.5998    2.8542 N.am    1  UNL1       -0.2793
     24 C          61.9178   91.5252    3.7436 C.3     1  UNL1        0.0971
     25 C          61.0246   90.8409    4.7355 C.3     1  UNL1        0.0650
     26 C          59.5800   91.2314    4.8380 C.3     1  UNL1        0.1693
     27 C          59.0286   92.3061    3.9486 C.3     1  UNL1        0.0650
     28 C          59.9218   92.9903    2.9567 C.3     1  UNL1        0.0971
     29 C          61.7083   94.3588    0.9728 C.3     1  UNL1        0.0767
     30 C          61.1542   94.7908   -0.3524 C.3     1  UNL1        0.0096
     31 C          61.3074   95.7881    0.7576 C.3     1  UNL1        0.0096
@<TRIPOS>BOND
     1    21    22    2
     2    22    29    1
     3    29    30    1
     4    30    31    1
     5    22    23   am
     6    23    24    1
     7    24    25    1
     8    25    26    1
     9    26    20    1
    10    20     1    1
    11     1     2   ar
    12     2     3   ar
    13     3     4   ar
    14     4     5   ar
    15     5     6   ar
    16     5     7    1
    17     7     8    1
    18     8     9    1
    19     9    10    1
    20    10    11    1
    21    11    12    1
    22    12    16    1
    23    16    17    1
    24    17    18    1
    25    18    19    1
    26    12    13    1
    27    13    14    1
    28     9    15    1
    29    26    27    1
    30    27    28    1
    31    31    29    1
    32    28    23    1
    33     6     1   ar
    34    14     9    1
    35    15     4    1
    36    19    16    1
@<TRIPOS>MOLECULE
*****
 31 36 0 0 0
SMALL
GASTEIGER

@<TRIPOS>ATOM
      1 C          64.4434   90.8205   13.5338 C.ar    1  UNL1        0.1383
      2 C          64.8854   90.1018   14.7740 C.ar    1  UNL1        0.0400
      3 C          64.6237   88.6323   14.9228 C.ar    1  UNL1        0.0397
      4 C          63.9200   87.8815   13.8314 C.ar    1  UNL1        0.1344
      5 C          63.4780   88.6002   12.5912 C.ar    1  UNL1        0.0149
      6 C          63.7397   90.0698   12.4424 C.ar    1  UNL1        0.0356
      7 C          62.7743   87.8495   11.4998 C.3     1  UNL1        0.0331
      8 C          62.5126   86.3799   11.6486 C.3     1  UNL1        0.0449
      9 C          62.9546   85.6612   12.8888 C.3     1  UNL1        0.1361
     10 C          62.2510   84.9105   11.7974 C.3     1  UNL1        0.0574
     11 C          61.9893   83.4410   11.9462 C.3     1  UNL1        0.0756
     12 N          62.4313   82.7223   13.1864 N.3     1  UNL1       -0.2737
     13 C          63.1350   83.4731   14.2777 C.3     1  UNL1        0.0756
     14 C          63.3966   84.9425   14.1289 C.3     1  UNL1        0.0574
     15 O          63.6584   86.4120   13.9802 O.3     1  UNL1       -0.4828
     16 C          62.1696   81.2528   13.3351 C.3     1  UNL1        0.0575
     17 C          62.7940   80.0035   12.7881 C.3     1  UNL1        0.0160
     18 C          61.7994   79.1746   13.5456 C.3     1  UNL1        0.0028
     19 C          61.1750   80.4239   14.0926 C.3     1  UNL1        0.0160
     20 O          64.7051   92.2899   13.3850 O.3     1  UNL1       -0.4791
     21 O          68.6421   93.5248    7.8873 O.2     1  UNL1       -0.2749
     22 C          67.5690   94.3510    8.5321 C.2     1  UNL1        0.2251
     23 N          66.8530   93.8357    9.7454 N.am    1  UNL1       -0.2793
     24 C          67.2101   92.4943   10.3137 C.3     1  UNL1        0.0971
     25 C          66.4942   91.9790   11.5269 C.3     1  UNL1        0.0650
     26 C          65.4211   92.8052   12.1718 C.3     1  UNL1        0.1693
     27 C          65.0640   94.1466   11.6035 C.3     1  UNL1        0.0650
     28 C          65.7799   94.6619   10.3903 C.3     1  UNL1        0.0971
     29 C          67.2119   95.6924    7.9638 C.3     1  UNL1        0.0767
     30 C          66.2692   96.8556    7.8733 C.3     1  UNL1        0.0096
     31 C          67.5361   96.8526    7.0701 C.3     1  UNL1        0.0096
@<TRIPOS>BOND
     1    21    22    2
     2    22    29    1
     3    29    30    1
     4    30    31    1
     5    22    23   am
     6    23    24    1
     7    24    25    1
     8    25    26    1
     9    26    20    1
    10    20     1    1
    11     1     2   ar
    12     2     3   ar
    13     3     4   ar
    14     4     5   ar
    15     5     6   ar
    16     5     7    1
    17     7     8    1
    18     8     9    1
    19     9    10    1
    20    10    11    1
    21    11    12    1
    22    12    16    1
    23    16    17    1
    24    17    18    1
    25    18    19    1
    26    12    13    1
    27    13    14    1
    28     9    15    1
    29    26    27    1
    30    27    28    1
    31    31    29    1
    32    28    23    1
    33     6     1   ar
    34    14     9    1
    35    15     4    1
    36    19    16    1
