@<TRIPOS>MOLECULE
*****
 32 34 0 0 0
SMALL
GASTEIGER

@<TRIPOS>ATOM
      1 C          63.2787   82.7089   13.4756 C.2     1  UNL1        0.2296
      2 O          63.7998   82.0326   14.7089 O.2     1  UNL1       -0.2745
      3 N          63.7018   84.1116   13.1539 N.am    1  UNL1       -0.2543
      4 C          63.1807   84.7879   11.9205 C.ar    1  UNL1        0.0565
      5 C          63.4803   84.2144   10.5673 C.ar    1  UNL1        0.0445
      6 C          62.9592   84.8907    9.3340 C.ar    1  UNL1        0.1415
      7 F          63.2589   84.3172    7.9807 F       1  UNL1       -0.2041
      8 C          62.1384   86.1405    9.4540 C.ar    1  UNL1        0.0328
      9 C          61.8388   86.7140   10.8072 C.ar    1  UNL1        0.0406
     10 C          62.3599   86.0377   12.0405 C.ar    1  UNL1        0.0181
     11 C          61.0180   87.9637   10.9271 C.ar    1  UNL1        0.1807
     12 N          61.1800   89.2073   10.1042 N.ar    1  UNL1       -0.1083
     13 N          60.1532   90.2016   10.5595 N.ar    1  UNL1       -0.0229
     14 N          59.3566   89.5724   11.6639 N.ar    1  UNL1       -0.0464
     15 N          59.8911   88.1894   11.8911 N.ar    1  UNL1       -0.2388
     16 H          59.5604   87.5432   12.5561 H       1  UNL1        0.1923
     17 C          62.3346   81.9825   12.5640 C.3     1  UNL1        0.0856
     18 C          62.7447   80.6802   11.9429 C.3     1  UNL1        0.0096
     19 C          62.8144   79.3584    9.7073 C.3     1  UNL1        0.0000
     20 C          63.0734   80.6172   10.4807 C.3     1  UNL1        0.0005
     21 C          64.6459   84.8380   14.0655 C.3     1  UNL1        0.1248
     22 C          64.1233   85.8765   15.0133 C.ar    1  UNL1        0.0010
     23 C          63.4288   85.4585   16.2754 C.ar    1  UNL1       -0.0024
     24 C          62.9062   86.4970   17.2231 C.ar    1  UNL1        0.0028
     25 C          63.0781   87.9536   16.9088 C.ar    1  UNL1        0.0372
     26 C          63.7726   88.3717   15.6467 C.ar    1  UNL1        0.1465
     27 C          64.2952   87.3331   14.6990 C.ar    1  UNL1        0.0346
     28 O          63.9445   89.8283   15.3324 O.3     1  UNL1       -0.4045
     29 C          64.1149   90.2736   13.9103 C.3     1  UNL1        0.5753
     30 F          64.2854   90.7190   12.4880 F       1  UNL1       -0.1328
     31 F          62.6508   90.0568   13.6669 F       1  UNL1       -0.1328
     32 F          65.5791   90.4905   14.1536 F       1  UNL1       -0.1328
@<TRIPOS>BOND
     1    19    20    1
     2    20    18    1
     3    18    17    1
     4    17     1    1
     5     1     2    2
     6     1     3   am
     7     3    21    1
     8    21    22    1
     9    22    23   ar
    10    23    24   ar
    11    24    25   ar
    12    25    26   ar
    13    26    28    1
    14    28    29    1
    15    29    30    1
    16    29    31    1
    17    29    32    1
    18    26    27   ar
    19     3     4    1
    20     4     5   ar
    21     5     6   ar
    22     6     7    1
    23     6     8   ar
    24     8     9   ar
    25     9    11    1
    26    11    12   ar
    27    12    13   ar
    28    13    14   ar
    29    14    15   ar
    30     9    10   ar
    31    27    22   ar
    32    10     4   ar
    33    15    11   ar
    34    15    16    1
@<TRIPOS>MOLECULE
*****
 32 34 0 0 0
SMALL
GASTEIGER

@<TRIPOS>ATOM
      1 C          60.2215   86.3031    8.0105 C.2     1  UNL1        0.2296
      2 O          60.3536   85.1648    7.0427 O.2     1  UNL1       -0.2745
      3 N          61.3544   86.6368    8.9352 N.am    1  UNL1       -0.2543
      4 C          61.2222   87.7752    9.9030 C.ar    1  UNL1        0.0565
      5 C          59.9820   87.9117   10.7354 C.ar    1  UNL1        0.0445
      6 C          59.8498   89.0501   11.7032 C.ar    1  UNL1        0.1415
      7 F          58.6095   89.1867   12.5357 F       1  UNL1       -0.2041
      8 C          60.9580   90.0520   11.8384 C.ar    1  UNL1        0.0328
      9 C          62.1982   89.9155   11.0060 C.ar    1  UNL1        0.0406
     10 C          62.3304   88.7771   10.0383 C.ar    1  UNL1        0.0181
     11 C          63.3064   90.9173   11.1413 C.ar    1  UNL1        0.1807
     12 N          64.1236   91.1670   12.3740 N.ar    1  UNL1       -0.1083
     13 N          65.1142   92.2494   12.0622 N.ar    1  UNL1       -0.0229
     14 N          64.9091   92.6687   10.6367 N.ar    1  UNL1       -0.0464
     15 N          63.7918   91.8455   10.0675 N.ar    1  UNL1       -0.2388
     16 H          63.4391   91.9040    9.1503 H       1  UNL1        0.1923
     17 C          58.9564   87.1080    8.0535 C.3     1  UNL1        0.0856
     18 C          58.7025   88.1622    7.0171 C.3     1  UNL1        0.0096
     19 C          59.4427   90.3351    5.8004 C.3     1  UNL1        0.0000
     20 C          59.6050   89.3569    6.9258 C.3     1  UNL1        0.0005
     21 C          62.6195   85.8320    8.8922 C.3     1  UNL1        0.1248
     22 C          62.9663   84.9183   10.0302 C.ar    1  UNL1        0.0010
     23 C          63.7991   83.6955    9.7832 C.ar    1  UNL1       -0.0024
     24 C          64.1458   82.7819   10.9212 C.ar    1  UNL1        0.0028
     25 C          63.6597   83.0910   12.3061 C.ar    1  UNL1        0.0372
     26 C          62.8268   84.3138   12.5531 C.ar    1  UNL1        0.1465
     27 C          62.4801   85.2275   11.4151 C.ar    1  UNL1        0.0346
     28 O          62.3407   84.6230   13.9380 O.3     1  UNL1       -0.4045
     29 C          63.3264   84.8743   15.0403 C.3     1  UNL1        0.5753
     30 F          64.3123   85.1258   16.1425 F       1  UNL1       -0.1328
     31 F          62.7478   83.7301   15.8187 F       1  UNL1       -0.1328
     32 F          63.9051   86.0185   14.2619 F       1  UNL1       -0.1328
@<TRIPOS>BOND
     1    19    20    1
     2    20    18    1
     3    18    17    1
     4    17     1    1
     5     1     2    2
     6     1     3   am
     7     3    21    1
     8    21    22    1
     9    22    23   ar
    10    23    24   ar
    11    24    25   ar
    12    25    26   ar
    13    26    28    1
    14    28    29    1
    15    29    30    1
    16    29    31    1
    17    29    32    1
    18    26    27   ar
    19     3     4    1
    20     4     5   ar
    21     5     6   ar
    22     6     7    1
    23     6     8   ar
    24     8     9   ar
    25     9    11    1
    26    11    12   ar
    27    12    13   ar
    28    13    14   ar
    29    14    15   ar
    30     9    10   ar
    31    27    22   ar
    32    10     4   ar
    33    15    11   ar
    34    15    16    1
@<TRIPOS>MOLECULE
*****
 32 34 0 0 0
SMALL
GASTEIGER

@<TRIPOS>ATOM
      1 C          60.4024   89.1076    9.6274 C.2     1  UNL1        0.2296
      2 O          59.8210   90.4842    9.7575 O.2     1  UNL1       -0.2745
      3 N          61.3049   88.5703   10.6984 N.am    1  UNL1       -0.2543
      4 C          61.8863   87.1936   10.5682 C.ar    1  UNL1        0.0565
      5 C          62.2818   86.6710    9.2190 C.ar    1  UNL1        0.0445
      6 C          62.8632   85.2944    9.0889 C.ar    1  UNL1        0.1415
      7 F          63.2588   84.7717    7.7397 F       1  UNL1       -0.2041
      8 C          63.0490   84.4405   10.3080 C.ar    1  UNL1        0.0328
      9 C          62.6534   84.9631   11.6572 C.ar    1  UNL1        0.0406
     10 C          62.0721   86.3397   11.7873 C.ar    1  UNL1        0.0181
     11 C          62.8392   84.1091   12.8763 C.ar    1  UNL1        0.1807
     12 N          63.4334   82.7321   12.9061 N.ar    1  UNL1       -0.1083
     13 N          63.4249   82.2542   14.3278 N.ar    1  UNL1       -0.0229
     14 N          62.8254   83.3357   15.1768 N.ar    1  UNL1       -0.0464
     15 N          62.4634   84.4821   14.2797 N.ar    1  UNL1       -0.2388
     16 H          62.0515   85.3304   14.5624 H       1  UNL1        0.1923
     17 C          60.0813   88.2682    8.4264 C.3     1  UNL1        0.0856
     18 C          59.1311   88.7812    7.3853 C.3     1  UNL1        0.0096
     19 C          58.6719   90.6355    5.6244 C.3     1  UNL1        0.0000
     20 C          59.6247   89.6990    6.3064 C.3     1  UNL1        0.0005
     21 C          61.6260   89.4096   11.8994 C.3     1  UNL1        0.1248
     22 C          62.7777   90.3698   11.8572 C.ar    1  UNL1        0.0010
     23 C          63.2641   90.9003   10.5412 C.ar    1  UNL1       -0.0024
     24 C          64.4157   91.8604   10.4990 C.ar    1  UNL1        0.0028
     25 C          65.0810   92.2900   11.7729 C.ar    1  UNL1        0.0372
     26 C          64.5946   91.7595   13.0890 C.ar    1  UNL1        0.1465
     27 C          63.4430   90.7994   13.1311 C.ar    1  UNL1        0.0346
     28 O          65.2599   92.1892   14.3629 O.3     1  UNL1       -0.4045
     29 C          66.7260   92.5060   14.3735 C.3     1  UNL1        0.5753
     30 F          68.1921   92.8229   14.3841 F       1  UNL1       -0.1328
     31 F          67.0424   91.0403   14.4136 F       1  UNL1       -0.1328
     32 F          66.4095   93.9716   14.3334 F       1  UNL1       -0.1328
@<TRIPOS>BOND
     1    19    20    1
     2    20    18    1
     3    18    17    1
     4    17     1    1
     5     1     2    2
     6     1     3   am
     7     3    21    1
     8    21    22    1
     9    22    23   ar
    10    23    24   ar
    11    24    25   ar
    12    25    26   ar
    13    26    28    1
    14    28    29    1
    15    29    30    1
    16    29    31    1
    17    29    32    1
    18    26    27   ar
    19     3     4    1
    20     4     5   ar
    21     5     6   ar
    22     6     7    1
    23     6     8   ar
    24     8     9   ar
    25     9    11    1
    26    11    12   ar
    27    12    13   ar
    28    13    14   ar
    29    14    15   ar
    30     9    10   ar
    31    27    22   ar
    32    10     4   ar
    33    15    11   ar
    34    15    16    1
@<TRIPOS>MOLECULE
*****
 32 34 0 0 0
SMALL
GASTEIGER

@<TRIPOS>ATOM
      1 C          60.2972   89.2303    9.7688 C.2     1  UNL1        0.2296
      2 O          59.4355   88.3267    8.9375 O.2     1  UNL1       -0.2745
      3 N          61.7634   88.9471    9.9101 N.am    1  UNL1       -0.2543
      4 C          62.6251   89.8507   10.7415 C.ar    1  UNL1        0.0565
      5 C          63.5179   90.8560   10.0766 C.ar    1  UNL1        0.0445
      6 C          64.3795   91.7596   10.9079 C.ar    1  UNL1        0.1415
      7 F          65.2725   92.7650   10.2430 F       1  UNL1       -0.2041
      8 C          64.3483   91.6579   12.4041 C.ar    1  UNL1        0.0328
      9 C          63.4554   90.6526   13.0690 C.ar    1  UNL1        0.0406
     10 C          62.5938   89.7490   12.2377 C.ar    1  UNL1        0.0181
     11 C          63.4242   90.5508   14.5652 C.ar    1  UNL1        0.1807
     12 N          63.8382   91.6216   15.5306 N.ar    1  UNL1       -0.1083
     13 N          63.6433   91.0931   16.9208 N.ar    1  UNL1       -0.0229
     14 N          63.1088   89.6955   16.8146 N.ar    1  UNL1       -0.0464
     15 N          62.9734   89.3605   15.3588 N.ar    1  UNL1       -0.2388
     16 H          62.6461   88.5087   14.9891 H       1  UNL1        0.1923
     17 C          59.6926   90.4171   10.4588 C.3     1  UNL1        0.0856
     18 C          59.0860   90.2634   11.8220 C.3     1  UNL1        0.0096
     19 C          57.9073   88.6134   13.4463 C.3     1  UNL1        0.0000
     20 C          58.9921   88.9056   12.4525 C.3     1  UNL1        0.0005
     21 C          62.3680   87.7603    9.2202 C.3     1  UNL1        0.1248
     22 C          62.5656   86.4767    9.9707 C.ar    1  UNL1        0.0010
     23 C          63.0209   85.2457    9.2445 C.ar    1  UNL1       -0.0024
     24 C          63.2185   83.9622    9.9950 C.ar    1  UNL1        0.0028
     25 C          62.9608   83.9095   11.4718 C.ar    1  UNL1        0.0372
     26 C          62.5055   85.1405   12.1980 C.ar    1  UNL1        0.1465
     27 C          62.3079   86.4240   11.4475 C.ar    1  UNL1        0.0346
     28 O          62.2478   85.0878   13.6747 O.3     1  UNL1       -0.4045
     29 C          63.0835   84.2023   14.5508 C.3     1  UNL1        0.5753
     30 F          63.9191   83.3167   15.4269 F       1  UNL1       -0.1328
     31 F          64.2258   85.1678   14.4371 F       1  UNL1       -0.1328
     32 F          61.9412   83.2368   14.6645 F       1  UNL1       -0.1328
@<TRIPOS>BOND
     1    19    20    1
     2    20    18    1
     3    18    17    1
     4    17     1    1
     5     1     2    2
     6     1     3   am
     7     3    21    1
     8    21    22    1
     9    22    23   ar
    10    23    24   ar
    11    24    25   ar
    12    25    26   ar
    13    26    28    1
    14    28    29    1
    15    29    30    1
    16    29    31    1
    17    29    32    1
    18    26    27   ar
    19     3     4    1
    20     4     5   ar
    21     5     6   ar
    22     6     7    1
    23     6     8   ar
    24     8     9   ar
    25     9    11    1
    26    11    12   ar
    27    12    13   ar
    28    13    14   ar
    29    14    15   ar
    30     9    10   ar
    31    27    22   ar
    32    10     4   ar
    33    15    11   ar
    34    15    16    1
@<TRIPOS>MOLECULE
*****
 32 34 0 0 0
SMALL
GASTEIGER

@<TRIPOS>ATOM
      1 C          62.0651   86.6331    9.7379 C.2     1  UNL1        0.2296
      2 O          61.4317   87.5254    8.7121 O.2     1  UNL1       -0.2745
      3 N          62.1515   87.0777   11.1679 N.am    1  UNL1       -0.2543
      4 C          62.7849   86.1852   12.1938 C.ar    1  UNL1        0.0565
      5 C          63.7257   86.7610   13.2104 C.ar    1  UNL1        0.0445
      6 C          64.3591   85.8685   14.2362 C.ar    1  UNL1        0.1415
      7 F          65.2999   86.4443   15.2529 F       1  UNL1       -0.2041
      8 C          64.0517   84.4004   14.2455 C.ar    1  UNL1        0.0328
      9 C          63.1109   83.8247   13.2289 C.ar    1  UNL1        0.0406
     10 C          62.4775   84.7171   12.2031 C.ar    1  UNL1        0.0181
     11 C          62.8035   82.3566   13.2382 C.ar    1  UNL1        0.1807
     12 N          62.9450   81.4188   12.0760 N.ar    1  UNL1       -0.1083
     13 N          62.5296   80.0510   12.5308 N.ar    1  UNL1       -0.0229
     14 N          62.1314   80.1435   13.9740 N.ar    1  UNL1       -0.0464
     15 N          62.3008   81.5684   14.4112 N.ar    1  UNL1       -0.2388
     16 H          62.1146   81.9239   15.3102 H       1  UNL1        0.1923
     17 C          62.6122   85.2961    9.3338 C.3     1  UNL1        0.0856
     18 C          62.9144   85.0141    7.8919 C.3     1  UNL1        0.0096
     19 C          62.0642   84.2302    5.5654 C.3     1  UNL1        0.0000
     20 C          61.7932   84.8325    6.9122 C.3     1  UNL1        0.0005
     21 C          61.6045   88.4146   11.5721 C.3     1  UNL1        0.1248
     22 C          62.4968   89.6204   11.5748 C.ar    1  UNL1        0.0010
     23 C          62.8036   90.3293   10.2891 C.ar    1  UNL1       -0.0024
     24 C          63.6959   91.5350   10.2919 C.ar    1  UNL1        0.0028
     25 C          64.2814   92.0318   11.5805 C.ar    1  UNL1        0.0372
     26 C          63.9746   91.3228   12.8663 C.ar    1  UNL1        0.1465
     27 C          63.0823   90.1171   12.8634 C.ar    1  UNL1        0.0346
     28 O          64.5600   91.8195   14.1549 O.3     1  UNL1       -0.4045
     29 C          65.9879   91.5132   14.4973 C.3     1  UNL1        0.5753
     30 F          67.4159   91.2068   14.8397 F       1  UNL1       -0.1328
     31 F          65.6426   90.0602   14.6370 F       1  UNL1       -0.1328
     32 F          66.3332   92.9661   14.3575 F       1  UNL1       -0.1328
@<TRIPOS>BOND
     1    19    20    1
     2    20    18    1
     3    18    17    1
     4    17     1    1
     5     1     2    2
     6     1     3   am
     7     3    21    1
     8    21    22    1
     9    22    23   ar
    10    23    24   ar
    11    24    25   ar
    12    25    26   ar
    13    26    28    1
    14    28    29    1
    15    29    30    1
    16    29    31    1
    17    29    32    1
    18    26    27   ar
    19     3     4    1
    20     4     5   ar
    21     5     6   ar
    22     6     7    1
    23     6     8   ar
    24     8     9   ar
    25     9    11    1
    26    11    12   ar
    27    12    13   ar
    28    13    14   ar
    29    14    15   ar
    30     9    10   ar
    31    27    22   ar
    32    10     4   ar
    33    15    11   ar
    34    15    16    1
@<TRIPOS>MOLECULE
*****
 32 34 0 0 0
SMALL
GASTEIGER

@<TRIPOS>ATOM
      1 C          60.2634   86.5415    7.9314 C.2     1  UNL1        0.2296
      2 O          60.3721   85.3872    6.9797 O.2     1  UNL1       -0.2745
      3 N          61.2788   86.7125    9.0221 N.am    1  UNL1       -0.2543
      4 C          61.1701   87.8669    9.9738 C.ar    1  UNL1        0.0565
      5 C          59.9417   88.0287   10.8193 C.ar    1  UNL1        0.0445
      6 C          59.8330   89.1830   11.7709 C.ar    1  UNL1        0.1415
      7 F          58.6046   89.3449   12.6165 F       1  UNL1       -0.2041
      8 C          60.9527   90.1756   11.8770 C.ar    1  UNL1        0.0328
      9 C          62.1810   90.0137   11.0316 C.ar    1  UNL1        0.0406
     10 C          62.2897   88.8594   10.0799 C.ar    1  UNL1        0.0181
     11 C          63.3007   91.0063   11.1377 C.ar    1  UNL1        0.1807
     12 N          64.1326   91.2699   12.3577 N.ar    1  UNL1       -0.1083
     13 N          65.1311   92.3360   12.0165 N.ar    1  UNL1       -0.0229
     14 N          64.9163   92.7313   10.5855 N.ar    1  UNL1       -0.0464
     15 N          63.7850   91.9095   10.0424 N.ar    1  UNL1       -0.2388
     16 H          63.4238   91.9550    9.1277 H       1  UNL1        0.1923
     17 C          59.1392   87.5249    7.7924 C.3     1  UNL1        0.0856
     18 C          59.4333   88.9587    7.4642 C.3     1  UNL1        0.0096
     19 C          58.7184   90.6922    5.6660 C.3     1  UNL1        0.0000
     20 C          59.4199   89.4193    6.0368 C.3     1  UNL1        0.0005
     21 C          62.4030   85.7292    9.1611 C.3     1  UNL1        0.1248
     22 C          62.7601   85.1845   10.5124 C.ar    1  UNL1        0.0010
     23 C          62.6809   86.0678   11.7220 C.ar    1  UNL1       -0.0024
     24 C          63.0381   85.5231   13.0732 C.ar    1  UNL1        0.0028
     25 C          63.4744   84.0949   13.2147 C.ar    1  UNL1        0.0372
     26 C          63.5537   83.2116   12.0050 C.ar    1  UNL1        0.1465
     27 C          63.1965   83.7563   10.6539 C.ar    1  UNL1        0.0346
     28 O          63.9900   81.7834   12.1465 O.3     1  UNL1       -0.4045
     29 C          63.1366   80.8099   12.9040 C.3     1  UNL1        0.5753
     30 F          62.2831   79.8364   13.6615 F       1  UNL1       -0.1328
     31 F          62.0559   80.9560   11.8740 F       1  UNL1       -0.1328
     32 F          64.2172   80.6639   13.9339 F       1  UNL1       -0.1328
@<TRIPOS>BOND
     1    19    20    1
     2    20    18    1
     3    18    17    1
     4    17     1    1
     5     1     2    2
     6     1     3   am
     7     3    21    1
     8    21    22    1
     9    22    23   ar
    10    23    24   ar
    11    24    25   ar
    12    25    26   ar
    13    26    28    1
    14    28    29    1
    15    29    30    1
    16    29    31    1
    17    29    32    1
    18    26    27   ar
    19     3     4    1
    20     4     5   ar
    21     5     6   ar
    22     6     7    1
    23     6     8   ar
    24     8     9   ar
    25     9    11    1
    26    11    12   ar
    27    12    13   ar
    28    13    14   ar
    29    14    15   ar
    30     9    10   ar
    31    27    22   ar
    32    10     4   ar
    33    15    11   ar
    34    15    16    1
@<TRIPOS>MOLECULE
*****
 32 34 0 0 0
SMALL
GASTEIGER

@<TRIPOS>ATOM
      1 C          63.2550   84.4377    9.6096 C.2     1  UNL1        0.2296
      2 O          63.7249   83.0137    9.6447 O.2     1  UNL1       -0.2745
      3 N          62.5498   85.0242   10.7965 N.am    1  UNL1       -0.2543
      4 C          62.0800   86.4484   10.7614 C.ar    1  UNL1        0.0565
      5 C          60.9726   86.8501    9.8328 C.ar    1  UNL1        0.0445
      6 C          60.5028   88.2742    9.7978 C.ar    1  UNL1        0.1415
      7 F          59.3953   88.6760    8.8692 F       1  UNL1       -0.2041
      8 C          61.1403   89.2965   10.6913 C.ar    1  UNL1        0.0328
      9 C          62.2477   88.8948   11.6199 C.ar    1  UNL1        0.0406
     10 C          62.7175   87.4707   11.6549 C.ar    1  UNL1        0.0181
     11 C          62.8853   89.9171   12.5134 C.ar    1  UNL1        0.1807
     12 N          63.8596   90.9751   12.0877 N.ar    1  UNL1       -0.1083
     13 N          64.2370   91.7728   13.3007 N.ar    1  UNL1       -0.0229
     14 N          63.4958   91.2078   14.4760 N.ar    1  UNL1       -0.0464
     15 N          62.6604   90.0609   13.9894 N.ar    1  UNL1       -0.2388
     16 H          62.0684   89.5009   14.5419 H       1  UNL1        0.1923
     17 C          63.4904   85.2753    8.3877 C.3     1  UNL1        0.0856
     18 C          62.5064   85.2440    7.2560 C.3     1  UNL1        0.0096
     19 C          61.6730   84.1963    5.0294 C.3     1  UNL1        0.0000
     20 C          62.6159   84.1885    6.1959 C.3     1  UNL1        0.0005
     21 C          62.3145   84.1867   12.0184 C.3     1  UNL1        0.1248
     22 C          63.1158   84.4331   13.2623 C.ar    1  UNL1        0.0010
     23 C          64.5834   84.1238   13.2825 C.ar    1  UNL1       -0.0024
     24 C          65.3847   84.3701   14.5264 C.ar    1  UNL1        0.0028
     25 C          64.7183   84.9258   15.7500 C.ar    1  UNL1        0.0372
     26 C          63.2507   85.2350   15.7298 C.ar    1  UNL1        0.1465
     27 C          62.4495   84.9887   14.4860 C.ar    1  UNL1        0.0346
     28 O          62.5844   85.7906   16.9535 O.3     1  UNL1       -0.4045
     29 C          62.9326   87.1670   17.4375 C.3     1  UNL1        0.5753
     30 F          63.2807   88.5435   17.9216 F       1  UNL1       -0.1328
     31 F          63.3246   87.5581   16.0434 F       1  UNL1       -0.1328
     32 F          62.5405   86.7760   18.8315 F       1  UNL1       -0.1328
@<TRIPOS>BOND
     1    19    20    1
     2    20    18    1
     3    18    17    1
     4    17     1    1
     5     1     2    2
     6     1     3   am
     7     3    21    1
     8    21    22    1
     9    22    23   ar
    10    23    24   ar
    11    24    25   ar
    12    25    26   ar
    13    26    28    1
    14    28    29    1
    15    29    30    1
    16    29    31    1
    17    29    32    1
    18    26    27   ar
    19     3     4    1
    20     4     5   ar
    21     5     6   ar
    22     6     7    1
    23     6     8   ar
    24     8     9   ar
    25     9    11    1
    26    11    12   ar
    27    12    13   ar
    28    13    14   ar
    29    14    15   ar
    30     9    10   ar
    31    27    22   ar
    32    10     4   ar
    33    15    11   ar
    34    15    16    1
@<TRIPOS>MOLECULE
*****
 32 34 0 0 0
SMALL
GASTEIGER

@<TRIPOS>ATOM
      1 C          60.6841   86.9831    9.1193 C.2     1  UNL1        0.2296
      2 O          60.2874   85.7523    8.3591 O.2     1  UNL1       -0.2745
      3 N          62.0866   87.1291    9.6309 N.am    1  UNL1       -0.2543
      4 C          62.4832   88.3600   10.3911 C.ar    1  UNL1        0.0565
      5 C          62.7294   89.6463    9.6598 C.ar    1  UNL1        0.0445
      6 C          63.1260   90.8770   10.4200 C.ar    1  UNL1        0.1415
      7 F          63.3722   92.1634    9.6888 F       1  UNL1       -0.2041
      8 C          63.2765   90.8215   11.9114 C.ar    1  UNL1        0.0328
      9 C          63.0303   89.5352   12.6426 C.ar    1  UNL1        0.0406
     10 C          62.6337   88.3044   11.8825 C.ar    1  UNL1        0.0181
     11 C          63.1807   89.4796   14.1340 C.ar    1  UNL1        0.1807
     12 N          63.4592   88.2501   14.9469 N.ar    1  UNL1       -0.1083
     13 N          63.5297   88.6544   16.3897 N.ar    1  UNL1       -0.0229
     14 N          63.2948   90.1338   16.4685 N.ar    1  UNL1       -0.0464
     15 N          63.0791   90.6438   15.0744 N.ar    1  UNL1       -0.2388
     16 H          62.9020   91.5785   14.8212 H       1  UNL1        0.1923
     17 C          59.6783   88.0679    9.3678 C.3     1  UNL1        0.0856
     18 C          59.5510   89.2082    8.4016 C.3     1  UNL1        0.0096
     19 C          59.1824   90.0753    5.9804 C.3     1  UNL1        0.0000
     20 C          59.2938   88.9356    6.9493 C.3     1  UNL1        0.0005
     21 C          63.0923   86.0444    9.3825 C.3     1  UNL1        0.1248
     22 C          63.1563   84.8571   10.2970 C.ar    1  UNL1        0.0010
     23 C          63.6701   83.5437    9.7861 C.ar    1  UNL1       -0.0024
     24 C          63.7341   82.3565   10.7006 C.ar    1  UNL1        0.0028
     25 C          63.2843   82.4827   12.1260 C.ar    1  UNL1        0.0372
     26 C          62.7706   83.7961   12.6369 C.ar    1  UNL1        0.1465
     27 C          62.7066   84.9833   11.7224 C.ar    1  UNL1        0.0346
     28 O          62.3208   83.9222   14.0623 O.3     1  UNL1       -0.4045
     29 C          63.2113   84.5801   15.0743 C.3     1  UNL1        0.5753
     30 F          64.1018   85.2380   16.0864 F       1  UNL1       -0.1328
     31 F          64.4040   84.2937   14.2110 F       1  UNL1       -0.1328
     32 F          62.0186   84.8665   15.9377 F       1  UNL1       -0.1328
@<TRIPOS>BOND
     1    19    20    1
     2    20    18    1
     3    18    17    1
     4    17     1    1
     5     1     2    2
     6     1     3   am
     7     3    21    1
     8    21    22    1
     9    22    23   ar
    10    23    24   ar
    11    24    25   ar
    12    25    26   ar
    13    26    28    1
    14    28    29    1
    15    29    30    1
    16    29    31    1
    17    29    32    1
    18    26    27   ar
    19     3     4    1
    20     4     5   ar
    21     5     6   ar
    22     6     7    1
    23     6     8   ar
    24     8     9   ar
    25     9    11    1
    26    11    12   ar
    27    12    13   ar
    28    13    14   ar
    29    14    15   ar
    30     9    10   ar
    31    27    22   ar
    32    10     4   ar
    33    15    11   ar
    34    15    16    1
@<TRIPOS>MOLECULE
*****
 32 34 0 0 0
SMALL
GASTEIGER

@<TRIPOS>ATOM
      1 C          61.9326   88.1385   10.0305 C.2     1  UNL1        0.2296
      2 O          61.3395   89.2707    9.2455 O.2     1  UNL1       -0.2745
      3 N          62.3497   88.3513   11.4555 N.am    1  UNL1       -0.2543
      4 C          62.9428   87.2190   12.2405 C.ar    1  UNL1        0.0565
      5 C          63.7069   87.4992   13.5005 C.ar    1  UNL1        0.0445
      6 C          64.3000   86.3670   14.2854 C.ar    1  UNL1        0.1415
      7 F          65.0642   86.6471   15.5454 F       1  UNL1       -0.2041
      8 C          64.1290   84.9545   13.8103 C.ar    1  UNL1        0.0328
      9 C          63.3649   84.6743   12.5503 C.ar    1  UNL1        0.0406
     10 C          62.7718   85.8066   11.7654 C.ar    1  UNL1        0.0181
     11 C          63.1939   83.2618   12.0753 C.ar    1  UNL1        0.1807
     12 N          62.6110   82.1295   12.8678 N.ar    1  UNL1       -0.1083
     13 N          62.6326   80.9015   12.0066 N.ar    1  UNL1       -0.0229
     14 N          63.2290   81.2749   10.6818 N.ar    1  UNL1       -0.0464
     15 N          63.5759   82.7336   10.7243 N.ar    1  UNL1       -0.2388
     16 H          63.9828   83.2532    9.9937 H       1  UNL1        0.1923
     17 C          62.1087   86.7933    9.3904 C.3     1  UNL1        0.0856
     18 C          60.9083   85.9548    9.0648 C.3     1  UNL1        0.0096
     19 C          58.9587   86.9612    7.6734 C.3     1  UNL1        0.0000
     20 C          60.2049   86.1301    7.7516 C.3     1  UNL1        0.0005
     21 C          62.1737   89.6964   12.0955 C.3     1  UNL1        0.1248
     22 C          63.2941   90.6934   12.0663 C.ar    1  UNL1        0.0010
     23 C          63.7546   91.2659   10.7586 C.ar    1  UNL1       -0.0024
     24 C          64.8750   92.2628   10.7293 C.ar    1  UNL1        0.0028
     25 C          65.5348   92.6872   12.0078 C.ar    1  UNL1        0.0372
     26 C          65.0743   92.1147   13.3155 C.ar    1  UNL1        0.1465
     27 C          63.9540   91.1178   13.3447 C.ar    1  UNL1        0.0346
     28 O          65.7342   92.5391   14.5940 O.3     1  UNL1       -0.4045
     29 C          67.2304   92.5979   14.6821 C.3     1  UNL1        0.5753
     30 F          68.7267   92.6568   14.7703 F       1  UNL1       -0.1328
     31 F          67.2959   91.1037   14.5687 F       1  UNL1       -0.1328
     32 F          67.1650   94.0922   14.7956 F       1  UNL1       -0.1328
@<TRIPOS>BOND
     1    19    20    1
     2    20    18    1
     3    18    17    1
     4    17     1    1
     5     1     2    2
     6     1     3   am
     7     3    21    1
     8    21    22    1
     9    22    23   ar
    10    23    24   ar
    11    24    25   ar
    12    25    26   ar
    13    26    28    1
    14    28    29    1
    15    29    30    1
    16    29    31    1
    17    29    32    1
    18    26    27   ar
    19     3     4    1
    20     4     5   ar
    21     5     6   ar
    22     6     7    1
    23     6     8   ar
    24     8     9   ar
    25     9    11    1
    26    11    12   ar
    27    12    13   ar
    28    13    14   ar
    29    14    15   ar
    30     9    10   ar
    31    27    22   ar
    32    10     4   ar
    33    15    11   ar
    34    15    16    1
