@<TRIPOS>MOLECULE
*****
 84 90 0 0 0
SMALL
GASTEIGER

@<TRIPOS>ATOM
      1 C          62.8467   84.2486   10.3624 C.3     1  UNL1        0.0705
      2 C          61.7748   85.1795   10.8467 C.3     1  UNL1        0.0212
      3 C          61.3947   86.3768   10.0270 C.3     1  UNL1        0.0212
      4 C          62.0864   86.6433    8.7230 C.3     1  UNL1        0.0705
      5 C          63.1583   85.7125    8.2386 C.3     1  UNL1        0.0212
      6 C          63.5385   84.5151    9.0583 C.3     1  UNL1        0.0212
      7 N          61.7062   87.8407    7.9034 N.pl3   1  UNL1       -0.3196
      8 H          62.4045   88.4426    7.5579 H       1  UNL1        0.1481
      9 C          60.2622   88.1210    7.6100 C.ar    1  UNL1        0.1316
     10 N          59.1902   87.3134    8.2801 N.ar    1  UNL1       -0.2092
     11 C          57.7462   87.5937    7.9867 C.ar    1  UNL1        0.2000
     12 N          57.3740   88.6815    7.0234 N.ar    1  UNL1       -0.2238
     13 C          58.4458   89.4891    6.3533 C.ar    1  UNL1        0.0888
     14 C          58.0736   90.5769    5.3900 C.ar    1  UNL1        0.0574
     15 C          59.1455   91.3844    4.7199 C.ar    1  UNL1        0.1535
     16 C          60.5896   91.1042    5.0132 C.ar    1  UNL1        0.0850
     17 C          60.9618   90.0163    5.9766 C.ar    1  UNL1        0.0220
     18 C          59.8900   89.2088    6.6467 C.ar    1  UNL1        0.0505
     19 N          61.6615   91.9117    4.3432 N.am    1  UNL1       -0.2802
     20 C          61.8216   91.8558    2.8528 C.2     1  UNL1        0.2443
     21 O          60.9098   90.9923    2.0325 O.2     1  UNL1       -0.2730
     22 H          62.2600   92.4784    4.8816 H       1  UNL1        0.1550
     23 C          62.8935   92.6633    2.1829 C.3     1  UNL1        0.1521
     24 C          64.3071   92.8203    2.6597 C.3     1  UNL1        0.0310
     25 C          65.0273   93.7097    1.6900 C.3     1  UNL1        0.0237
     26 C          64.0588   94.1024    0.6138 C.3     1  UNL1        0.0939
     27 N          62.7401   93.4557    0.9185 N.am    1  UNL1       -0.2717
     28 C          61.4878   93.5796    0.1021 C.2     1  UNL1        0.2438
     29 O          60.2380   92.8714    0.5337 O.2     1  UNL1       -0.2731
     30 C          61.4854   94.4118   -1.1459 C.3     1  UNL1        0.1487
     31 C          60.5008   95.5331   -1.2977 C.3     1  UNL1        0.0250
     32 C          59.9791   94.9047   -2.5558 C.3     1  UNL1        0.0021
     33 C          61.0225   96.1615   -0.0395 C.3     1  UNL1        0.0021
     34 C          59.5161   96.6546   -1.4494 C.3     1  UNL1        0.0021
     35 N          62.4677   94.1226   -2.2420 N.am    1  UNL1       -0.2973
     36 C          63.4993   95.1461   -2.6137 C.2     1  UNL1        0.2370
     37 O          63.5488   96.4587   -1.8894 O.2     1  UNL1       -0.2737
     38 H          62.4353   93.2612   -2.7175 H       1  UNL1        0.1499
     39 C          64.4817   94.8570   -3.7099 C.3     1  UNL1        0.1316
     40 C          65.1901   95.9854   -4.3991 C.3     1  UNL1        0.0270
     41 N          64.7555   93.4395   -4.1169 N.3     1  UNL1       -0.2902
     42 C          63.8481   92.7507   -5.0926 C.3     1  UNL1        0.0862
     43 H          64.7480   92.8814   -3.2632 H       1  UNL1        0.1237
     44 O          58.7733   92.4723    3.7565 O.3     1  UNL1       -0.4701
     45 C          59.4905   93.7891    3.7986 C.3     1  UNL1        0.2525
     46 N          63.2268   83.0513   11.1820 N.pl3   1  UNL1       -0.3196
     47 H          63.6163   82.2594   10.7455 H       1  UNL1        0.1481
     48 C          63.7042   86.8788   13.5000 C.ar    1  UNL1        0.0850
     49 C          63.5451   85.6029   12.7273 C.ar    1  UNL1        0.0220
     50 C          63.1728   84.3363   13.4395 C.ar    1  UNL1        0.0505
     51 C          63.0136   83.0605   12.6668 C.ar    1  UNL1        0.1316
     52 N          62.6413   81.7939   13.3789 N.ar    1  UNL1       -0.2092
     53 C          62.4281   81.8031   14.8636 C.ar    1  UNL1        0.2000
     54 N          62.5873   83.0789   15.6363 N.ar    1  UNL1       -0.2238
     55 C          62.9596   84.3455   14.9242 C.ar    1  UNL1        0.0888
     56 C          63.1187   85.6214   15.6968 C.ar    1  UNL1        0.0574
     57 C          63.4910   86.8879   14.9848 C.ar    1  UNL1        0.1535
     58 C          63.0043   89.0554   12.2661 C.2     1  UNL1        0.2443
     59 O          61.5598   88.6988   12.4564 O.2     1  UNL1       -0.2730
     60 N          64.0765   88.1453   12.7879 N.am    1  UNL1       -0.2802
     61 H          65.0246   88.3794   12.6630 H       1  UNL1        0.1550
     62 C          65.0862   91.3234   13.3484 C.2     1  UNL1        0.2438
     63 O          64.9117   90.1610   14.2804 O.2     1  UNL1       -0.2731
     64 N          64.3336   91.3644   12.0515 N.am    1  UNL1       -0.2717
     65 C          64.4059   92.4553   11.0244 C.3     1  UNL1        0.0939
     66 C          63.4935   92.0870    9.8921 C.3     1  UNL1        0.0237
     67 C          62.8575   90.7685   10.2194 C.3     1  UNL1        0.0310
     68 C          63.3767   90.3220   11.5540 C.3     1  UNL1        0.1521
     69 C          66.0133   92.4446   13.7134 C.3     1  UNL1        0.1487
     70 C          67.0383   92.2496   14.7910 C.3     1  UNL1        0.0250
     71 C          66.0902   92.8304   15.7979 C.3     1  UNL1        0.0021
     72 C          67.9864   91.6688   13.7842 C.3     1  UNL1        0.0021
     73 C          68.0633   92.0546   15.8687 C.3     1  UNL1        0.0021
     74 C          66.6680   93.9788   11.7215 C.2     1  UNL1        0.2370
     75 O          67.5184   92.8805   11.1551 O.2     1  UNL1       -0.2737
     76 N          65.9155   93.7608   13.0006 N.am    1  UNL1       -0.2973
     77 H          65.3574   94.4816   13.3724 H       1  UNL1        0.1499
     78 C          66.5702   95.2950   11.0087 C.3     1  UNL1        0.1316
     79 C          66.1581   96.5261   11.7601 C.3     1  UNL1        0.0270
     80 C          68.0226   94.5863    8.9744 C.3     1  UNL1        0.0862
     81 N          66.8846   95.3800    9.5445 N.3     1  UNL1       -0.2902
     82 H          66.0438   95.0895    9.0455 H       1  UNL1        0.1237
     83 O          63.6501   88.1638   15.7574 O.3     1  UNL1       -0.4701
     84 C          62.9957   88.3149   17.0986 C.3     1  UNL1        0.2525
@<TRIPOS>BOND
     1    80    81    1
     2    81    78    1
     3    78    79    1
     4    78    74    1
     5    74    75    2
     6    74    76   am
     7    69    76    1
     8    69    62    1
     9    62    63    2
    10    62    64   am
    11    64    65    1
    12    65    66    1
    13    66    67    1
    14    67    68    1
    15    68    58    1
    16    58    59    2
    17    58    60   am
    18    60    48    1
    19    48    49   ar
    20    49    50   ar
    21    50    51   ar
    22    51    46    1
    23     1    46    1
    24     1     2    1
    25     2     3    1
    26     3     4    1
    27     4     7    1
    28     7     9    1
    29     9    10   ar
    30    10    11   ar
    31    11    12   ar
    32    12    13   ar
    33    13    14   ar
    34    14    15   ar
    35    15    44    1
    36    44    45    1
    37    15    16   ar
    38    16    19    1
    39    19    20   am
    40    20    21    2
    41    23    20    1
    42    23    24    1
    43    24    25    1
    44    25    26    1
    45    26    27    1
    46    27    28   am
    47    28    29    2
    48    28    30    1
    49    30    35    1
    50    35    36   am
    51    36    37    2
    52    36    39    1
    53    39    40    1
    54    39    41    1
    55    41    42    1
    56    30    31    1
    57    31    32    1
    58    31    33    1
    59    31    34    1
    60    16    17   ar
    61    17    18   ar
    62     4     5    1
    63     5     6    1
    64    51    52   ar
    65    52    53   ar
    66    53    54   ar
    67    54    55   ar
    68    55    56   ar
    69    56    57   ar
    70    57    83    1
    71    83    84    1
    72    69    70    1
    73    70    71    1
    74    70    72    1
    75    70    73    1
    76    68    64    1
    77    57    48   ar
    78    55    50   ar
    79     6     1    1
    80    18     9   ar
    81    18    13   ar
    82    27    23    1
    83    81    82    1
    84    76    77    1
    85    60    61    1
    86    46    47    1
    87     7     8    1
    88    19    22    1
    89    35    38    1
    90    41    43    1
@<TRIPOS>MOLECULE
*****
 84 90 0 0 0
SMALL
GASTEIGER

@<TRIPOS>ATOM
      1 C          62.0233   86.7070    8.7702 C.3     1  UNL1        0.0705
      2 C          61.2998   86.3939   10.0463 C.3     1  UNL1        0.0212
      3 C          61.6742   85.1787   10.8420 C.3     1  UNL1        0.0212
      4 C          62.7721   84.2766   10.3615 C.3     1  UNL1        0.0705
      5 C          63.4957   84.5897    9.0854 C.3     1  UNL1        0.0212
      6 C          63.1212   85.8049    8.2897 C.3     1  UNL1        0.0212
      7 N          63.1465   83.0614   11.1572 N.pl3   1  UNL1       -0.3196
      8 H          63.5023   82.2648   10.7011 H       1  UNL1        0.1481
      9 C          62.9790   83.0600   12.6478 C.ar    1  UNL1        0.1316
     10 N          62.6262   81.7887   13.3616 N.ar    1  UNL1       -0.2092
     11 C          62.4586   81.7873   14.8522 C.ar    1  UNL1        0.2000
     12 N          62.6438   83.0570   15.6290 N.ar    1  UNL1       -0.2238
     13 C          62.9966   84.3282   14.9152 C.ar    1  UNL1        0.0888
     14 C          63.1817   85.5980   15.6920 C.ar    1  UNL1        0.0574
     15 C          63.5345   86.8693   14.9781 C.ar    1  UNL1        0.1535
     16 C          63.7021   86.8707   13.4876 C.ar    1  UNL1        0.0850
     17 C          63.5169   85.6009   12.7108 C.ar    1  UNL1        0.0220
     18 C          63.1642   84.3297   13.4246 C.ar    1  UNL1        0.0505
     19 N          64.0549   88.1419   12.7737 N.am    1  UNL1       -0.2802
     20 C          62.9712   89.0033   12.1961 C.2     1  UNL1        0.2443
     21 O          61.5348   88.5936   12.3324 O.2     1  UNL1       -0.2730
     22 H          64.9977   88.4109   12.6842 H       1  UNL1        0.1550
     23 C          63.3241   90.2745   11.4823 C.3     1  UNL1        0.1521
     24 C          62.7991   90.7105   10.1464 C.3     1  UNL1        0.0310
     25 C          63.4144   92.0384    9.8175 C.3     1  UNL1        0.0237
     26 C          64.3196   92.4231   10.9500 C.3     1  UNL1        0.0939
     27 N          64.2638   91.3330   11.9789 N.am    1  UNL1       -0.2717
     28 C          65.0157   91.3060   13.2766 C.2     1  UNL1        0.2438
     29 O          64.8588   90.1426   14.2103 O.2     1  UNL1       -0.2731
     30 C          65.9245   92.4426   13.6405 C.3     1  UNL1        0.1487
     31 C          66.9972   92.2449   14.6702 C.3     1  UNL1        0.0250
     32 C          66.1034   92.8427   15.7160 C.3     1  UNL1        0.0021
     33 C          67.8909   91.6471   13.6243 C.3     1  UNL1        0.0021
     34 C          68.0700   92.0472   15.6998 C.3     1  UNL1        0.0021
     35 N          65.7605   93.7767   12.9748 N.am    1  UNL1       -0.2973
     36 C          66.5312   94.0920   11.7272 C.2     1  UNL1        0.2370
     37 O          67.4658   93.0732   11.1453 O.2     1  UNL1       -0.2737
     38 H          65.1471   94.4454   13.3567 H       1  UNL1        0.1499
     39 C          66.3674   95.4261   11.0613 C.3     1  UNL1        0.1316
     40 C          66.2553   96.6702   11.8918 C.3     1  UNL1        0.0270
     41 N          66.3155   95.5161    9.5649 N.3     1  UNL1       -0.2902
     42 C          67.5022   95.1006    8.7470 C.3     1  UNL1        0.0862
     43 H          66.1265   96.4917    9.3350 H       1  UNL1        0.1237
     44 O          63.7197   88.1390   15.7549 O.3     1  UNL1       -0.4701
     45 C          63.0202   88.3231   17.0690 C.3     1  UNL1        0.2525
     46 N          61.6488   87.9222    7.9745 N.pl3   1  UNL1       -0.3196
     47 H          62.3476   88.5441    7.6674 H       1  UNL1        0.1481
     48 C          60.5752   91.1486    5.0270 C.ar    1  UNL1        0.0850
     49 C          60.9331   90.0732    6.0095 C.ar    1  UNL1        0.0220
     50 C          59.8519   89.2654    6.6643 C.ar    1  UNL1        0.0505
     51 C          60.2097   88.1900    7.6468 C.ar    1  UNL1        0.1316
     52 N          59.1286   87.3823    8.3015 N.ar    1  UNL1       -0.2092
     53 C          57.6896   87.6500    7.9737 C.ar    1  UNL1        0.2000
     54 N          57.3317   88.7255    6.9912 N.ar    1  UNL1       -0.2238
     55 C          58.4129   89.5332    6.3365 C.ar    1  UNL1        0.0888
     56 C          58.0550   90.6087    5.3540 C.ar    1  UNL1        0.0574
     57 C          59.1361   91.4164    4.6993 C.ar    1  UNL1        0.1535
     58 C          61.7704   91.9844    2.8769 C.2     1  UNL1        0.2443
     59 O          60.8033   91.2048    2.0362 O.2     1  UNL1       -0.2730
     60 N          61.6564   91.9563    4.3723 N.am    1  UNL1       -0.2802
     61 H          62.2912   92.4680    4.9241 H       1  UNL1        0.1550
     62 C          61.4415   93.8111    0.1928 C.2     1  UNL1        0.2438
     63 O          60.1818   93.1148    0.6150 O.2     1  UNL1       -0.2731
     64 N          62.7004   93.6318    0.9885 N.am    1  UNL1       -0.2717
     65 C          64.0292   94.2607    0.6901 C.3     1  UNL1        0.0939
     66 C          65.0015   93.8097    1.7395 C.3     1  UNL1        0.0237
     67 C          64.2738   92.9021    2.6864 C.3     1  UNL1        0.0310
     68 C          62.8516   92.7922    2.2222 C.3     1  UNL1        0.1521
     69 C          61.4424   94.6868   -1.0251 C.3     1  UNL1        0.1487
     70 C          62.5836   94.6198   -1.9961 C.3     1  UNL1        0.0250
     71 C          62.8663   96.0745   -1.7643 C.3     1  UNL1        0.0021
     72 C          62.3009   93.1650   -2.2280 C.3     1  UNL1        0.0021
     73 C          63.7249   94.5527   -2.9672 C.3     1  UNL1        0.0021
     74 C          59.0745   95.1502   -1.9884 C.2     1  UNL1        0.2370
     75 O          58.9874   93.7284   -2.4582 O.2     1  UNL1       -0.2737
     76 N          60.3020   95.6295   -1.2718 N.am    1  UNL1       -0.2973
     77 H          60.3592   96.5627   -0.9635 H       1  UNL1        0.1499
     78 C          57.9341   96.0928   -2.2352 C.3     1  UNL1        0.1316
     79 C          57.1009   96.5792   -1.0867 C.3     1  UNL1        0.0270
     80 C          56.8217   95.6745   -4.5456 C.3     1  UNL1        0.0862
     81 N          57.6268   96.5491   -3.6307 N.3     1  UNL1       -0.2902
     82 H          57.1222   97.4316   -3.5476 H       1  UNL1        0.1237
     83 O          58.7783   92.4918    3.7168 O.3     1  UNL1       -0.4701
     84 C          59.3812   93.8590    3.8486 C.3     1  UNL1        0.2525
@<TRIPOS>BOND
     1    80    81    1
     2    81    78    1
     3    78    79    1
     4    78    74    1
     5    74    75    2
     6    74    76   am
     7    69    76    1
     8    69    62    1
     9    62    63    2
    10    62    64   am
    11    64    65    1
    12    65    66    1
    13    66    67    1
    14    67    68    1
    15    68    58    1
    16    58    59    2
    17    58    60   am
    18    60    48    1
    19    48    49   ar
    20    49    50   ar
    21    50    51   ar
    22    51    46    1
    23     1    46    1
    24     1     2    1
    25     2     3    1
    26     3     4    1
    27     4     7    1
    28     7     9    1
    29     9    10   ar
    30    10    11   ar
    31    11    12   ar
    32    12    13   ar
    33    13    14   ar
    34    14    15   ar
    35    15    44    1
    36    44    45    1
    37    15    16   ar
    38    16    19    1
    39    19    20   am
    40    20    21    2
    41    23    20    1
    42    23    24    1
    43    24    25    1
    44    25    26    1
    45    26    27    1
    46    27    28   am
    47    28    29    2
    48    28    30    1
    49    30    35    1
    50    35    36   am
    51    36    37    2
    52    36    39    1
    53    39    40    1
    54    39    41    1
    55    41    42    1
    56    30    31    1
    57    31    32    1
    58    31    33    1
    59    31    34    1
    60    16    17   ar
    61    17    18   ar
    62     4     5    1
    63     5     6    1
    64    51    52   ar
    65    52    53   ar
    66    53    54   ar
    67    54    55   ar
    68    55    56   ar
    69    56    57   ar
    70    57    83    1
    71    83    84    1
    72    69    70    1
    73    70    71    1
    74    70    72    1
    75    70    73    1
    76    68    64    1
    77    57    48   ar
    78    55    50   ar
    79     6     1    1
    80    18     9   ar
    81    18    13   ar
    82    27    23    1
    83    81    82    1
    84    76    77    1
    85    60    61    1
    86    46    47    1
    87     7     8    1
    88    19    22    1
    89    35    38    1
    90    41    43    1
@<TRIPOS>MOLECULE
*****
 84 90 0 0 0
SMALL
GASTEIGER

@<TRIPOS>ATOM
      1 C          62.6779   84.4794   10.3919 C.3     1  UNL1        0.0705
      2 C          63.3467   84.7354    9.0739 C.3     1  UNL1        0.0212
      3 C          62.9917   85.9558    8.2773 C.3     1  UNL1        0.0212
      4 C          61.9679   86.9201    8.7986 C.3     1  UNL1        0.0705
      5 C          61.2991   86.6641   10.1167 C.3     1  UNL1        0.0212
      6 C          61.6541   85.4438   10.9133 C.3     1  UNL1        0.0212
      7 N          61.6129   88.1405    8.0020 N.pl3   1  UNL1       -0.3196
      8 H          62.3176   88.7699    7.7253 H       1  UNL1        0.1481
      9 C          60.1843   88.4019    7.6269 C.ar    1  UNL1        0.1316
     10 N          59.0816   87.6309    8.2900 N.ar    1  UNL1       -0.2092
     11 C          57.6530   87.8923    7.9149 C.ar    1  UNL1        0.2000
     12 N          57.3270   88.9248    6.8767 N.ar    1  UNL1       -0.2238
     13 C          58.4296   89.6958    6.2136 C.ar    1  UNL1        0.0888
     14 C          58.1036   90.7282    5.1754 C.ar    1  UNL1        0.0574
     15 C          59.2063   91.4992    4.5123 C.ar    1  UNL1        0.1535
     16 C          60.6349   91.2378    4.8874 C.ar    1  UNL1        0.0850
     17 C          60.9609   90.2054    5.9256 C.ar    1  UNL1        0.0220
     18 C          59.8583   89.4344    6.5887 C.ar    1  UNL1        0.0505
     19 N          61.7376   92.0088    4.2243 N.am    1  UNL1       -0.2802
     20 C          61.9173   91.9320    2.7371 C.2     1  UNL1        0.2443
     21 O          60.9943   91.0841    1.9129 O.2     1  UNL1       -0.2730
     22 H          62.3434   92.5653    4.7652 H       1  UNL1        0.1550
     23 C          63.0199   92.7030    2.0741 C.3     1  UNL1        0.1521
     24 C          64.4513   92.7545    2.5198 C.3     1  UNL1        0.0310
     25 C          65.2009   93.6412    1.5701 C.3     1  UNL1        0.0237
     26 C          64.2328   94.1377    0.5374 C.3     1  UNL1        0.0939
     27 N          62.8849   93.5579    0.8489 N.am    1  UNL1       -0.2717
     28 C          61.6235   93.7918    0.0717 C.2     1  UNL1        0.2438
     29 O          60.3436   93.1409    0.5055 O.2     1  UNL1       -0.2731
     30 C          61.6419   94.6767   -1.1393 C.3     1  UNL1        0.1487
     31 C          62.7595   94.5640   -2.1335 C.3     1  UNL1        0.0250
     32 C          62.4131   93.1221   -2.3595 C.3     1  UNL1        0.0021
     33 C          63.1058   96.0059   -1.9076 C.3     1  UNL1        0.0021
     34 C          63.8771   94.4514   -3.1278 C.3     1  UNL1        0.0021
     35 N          60.5429   95.6742   -1.3562 N.am    1  UNL1       -0.2973
     36 C          59.2645   95.2499   -2.0163 C.2     1  UNL1        0.2370
     37 O          59.0852   93.8281   -2.4595 O.2     1  UNL1       -0.2737
     38 H          60.6605   96.6073   -1.0653 H       1  UNL1        0.1499
     39 C          58.1654   96.2473   -2.2332 C.3     1  UNL1        0.1316
     40 C          57.9586   96.8524   -3.5901 C.3     1  UNL1        0.0270
     41 N          57.2731   96.6398   -1.0931 N.3     1  UNL1       -0.2902
     42 C          55.7909   96.4334   -1.1954 C.3     1  UNL1        0.0862
     43 H          57.4213   97.6361   -0.9327 H       1  UNL1        0.1237
     44 O          58.8804   92.5316    3.4741 O.3     1  UNL1       -0.4701
     45 C          59.5208   93.8866    3.5369 C.3     1  UNL1        0.2525
     46 N          63.0330   83.2590   11.1885 N.pl3   1  UNL1       -0.3196
     47 H          63.3641   82.4521   10.7318 H       1  UNL1        0.1481
     48 C          63.7691   87.0487   13.5007 C.ar    1  UNL1        0.0850
     49 C          63.5237   85.7855   12.7300 C.ar    1  UNL1        0.0220
     50 C          63.1288   84.5312   13.4518 C.ar    1  UNL1        0.0505
     51 C          62.8835   83.2680   12.6811 C.ar    1  UNL1        0.1316
     52 N          62.4886   82.0138   13.4028 N.ar    1  UNL1       -0.2092
     53 C          62.3391   82.0228   14.8953 C.ar    1  UNL1        0.2000
     54 N          62.5845   83.2860   15.6660 N.ar    1  UNL1       -0.2238
     55 C          62.9794   84.5402   14.9443 C.ar    1  UNL1        0.0888
     56 C          63.2247   85.8035   15.7150 C.ar    1  UNL1        0.0574
     57 C          63.6196   87.0577   14.9933 C.ar    1  UNL1        0.1535
     58 C          63.1106   89.2660   12.3176 C.2     1  UNL1        0.2443
     59 O          61.6624   88.9749   12.5780 O.2     1  UNL1       -0.2730
     60 N          64.1640   88.3029   12.7790 N.am    1  UNL1       -0.2802
     61 H          65.1145   88.4940   12.6080 H       1  UNL1        0.1550
     62 C          65.2667   91.4820   13.3618 C.2     1  UNL1        0.2438
     63 O          65.0754   90.3275   14.3002 O.2     1  UNL1       -0.2731
     64 N          64.4966   91.5388   12.0759 N.am    1  UNL1       -0.2717
     65 C          64.5824   92.6243   11.0440 C.3     1  UNL1        0.0939
     66 C          63.6443   92.2765    9.9263 C.3     1  UNL1        0.0237
     67 C          62.9788   90.9762   10.2674 C.3     1  UNL1        0.0310
     68 C          63.5056   90.5203   11.5958 C.3     1  UNL1        0.1521
     69 C          66.2281   92.5797   13.7094 C.3     1  UNL1        0.1487
     70 C          67.2519   92.3673   14.7849 C.3     1  UNL1        0.0250
     71 C          66.3580   93.0574   15.7722 C.3     1  UNL1        0.0021
     72 C          68.1458   91.6772   13.7977 C.3     1  UNL1        0.0021
     73 C          68.2757   92.1549   15.8604 C.3     1  UNL1        0.0021
     74 C          66.8683   94.0511   11.6662 C.2     1  UNL1        0.2370
     75 O          67.6334   92.9024   11.0787 O.2     1  UNL1       -0.2737
     76 N          66.1656   93.8898   12.9815 N.am    1  UNL1       -0.2973
     77 H          65.6635   94.6437   13.3671 H       1  UNL1        0.1499
     78 C          66.8059   95.3611   10.9382 C.3     1  UNL1        0.1316
     79 C          65.8839   96.4427   11.4180 C.3     1  UNL1        0.0270
     80 C          67.2246   95.0830    8.3893 C.3     1  UNL1        0.0862
     81 N          67.6656   95.5896    9.7305 N.3     1  UNL1       -0.2902
     82 H          67.7837   96.5987    9.6397 H       1  UNL1        0.1237
     83 O          63.8650   88.3209   15.7640 O.3     1  UNL1       -0.4701
     84 C          62.7492   88.9540   16.5413 C.3     1  UNL1        0.2525
@<TRIPOS>BOND
     1    80    81    1
     2    81    78    1
     3    78    79    1
     4    78    74    1
     5    74    75    2
     6    74    76   am
     7    69    76    1
     8    69    62    1
     9    62    63    2
    10    62    64   am
    11    64    65    1
    12    65    66    1
    13    66    67    1
    14    67    68    1
    15    68    58    1
    16    58    59    2
    17    58    60   am
    18    60    48    1
    19    48    49   ar
    20    49    50   ar
    21    50    51   ar
    22    51    46    1
    23     1    46    1
    24     1     2    1
    25     2     3    1
    26     3     4    1
    27     4     7    1
    28     7     9    1
    29     9    10   ar
    30    10    11   ar
    31    11    12   ar
    32    12    13   ar
    33    13    14   ar
    34    14    15   ar
    35    15    44    1
    36    44    45    1
    37    15    16   ar
    38    16    19    1
    39    19    20   am
    40    20    21    2
    41    23    20    1
    42    23    24    1
    43    24    25    1
    44    25    26    1
    45    26    27    1
    46    27    28   am
    47    28    29    2
    48    28    30    1
    49    30    35    1
    50    35    36   am
    51    36    37    2
    52    36    39    1
    53    39    40    1
    54    39    41    1
    55    41    42    1
    56    30    31    1
    57    31    32    1
    58    31    33    1
    59    31    34    1
    60    16    17   ar
    61    17    18   ar
    62     4     5    1
    63     5     6    1
    64    51    52   ar
    65    52    53   ar
    66    53    54   ar
    67    54    55   ar
    68    55    56   ar
    69    56    57   ar
    70    57    83    1
    71    83    84    1
    72    69    70    1
    73    70    71    1
    74    70    72    1
    75    70    73    1
    76    68    64    1
    77    57    48   ar
    78    55    50   ar
    79     6     1    1
    80    18     9   ar
    81    18    13   ar
    82    27    23    1
    83    81    82    1
    84    76    77    1
    85    60    61    1
    86    46    47    1
    87     7     8    1
    88    19    22    1
    89    35    38    1
    90    41    43    1
@<TRIPOS>MOLECULE
*****
 84 90 0 0 0
SMALL
GASTEIGER

@<TRIPOS>ATOM
      1 C          62.0333   86.7075    8.7227 C.3     1  UNL1        0.0705
      2 C          61.3205   86.4239   10.0117 C.3     1  UNL1        0.0212
      3 C          61.6750   85.2062   10.8126 C.3     1  UNL1        0.0212
      4 C          62.7423   84.2721   10.3246 C.3     1  UNL1        0.0705
      5 C          63.4552   84.5557    9.0356 C.3     1  UNL1        0.0212
      6 C          63.1007   85.7734    8.2347 C.3     1  UNL1        0.0212
      7 N          63.0968   83.0544   11.1256 N.pl3   1  UNL1       -0.3196
      8 H          63.4400   82.2503   10.6730 H       1  UNL1        0.1481
      9 C          62.9284   83.0619   12.6160 C.ar    1  UNL1        0.1316
     10 N          62.5529   81.7999   13.3347 N.ar    1  UNL1       -0.2092
     11 C          62.3845   81.8073   14.8252 C.ar    1  UNL1        0.2000
     12 N          62.5915   83.0767   15.5971 N.ar    1  UNL1       -0.2238
     13 C          62.9670   84.3387   14.8784 C.ar    1  UNL1        0.0888
     14 C          63.1741   85.6081   15.6503 C.ar    1  UNL1        0.0574
     15 C          63.5496   86.8700   14.9316 C.ar    1  UNL1        0.1535
     16 C          63.7180   86.8626   13.4411 C.ar    1  UNL1        0.0850
     17 C          63.5110   85.5932   12.6693 C.ar    1  UNL1        0.0220
     18 C          63.1355   84.3313   13.3879 C.ar    1  UNL1        0.0505
     19 N          64.0936   88.1246   12.7224 N.am    1  UNL1       -0.2802
     20 C          63.0423   89.1442   12.3981 C.2     1  UNL1        0.2443
     21 O          61.6155   88.9018   12.7924 O.2     1  UNL1       -0.2730
     22 H          65.0300   88.2836   12.4636 H       1  UNL1        0.1550
     23 C          63.4178   90.4061   11.6794 C.3     1  UNL1        0.1521
     24 C          62.8772   90.8615   10.3564 C.3     1  UNL1        0.0310
     25 C          63.5252   92.1711   10.0168 C.3     1  UNL1        0.0237
     26 C          64.4663   92.5250   11.1300 C.3     1  UNL1        0.0939
     27 N          64.3999   91.4341   12.1576 N.am    1  UNL1       -0.2717
     28 C          65.1789   91.3808   13.4383 C.2     1  UNL1        0.2438
     29 O          65.0072   90.2200   14.3728 O.2     1  UNL1       -0.2731
     30 C          66.1295   92.4882   13.7847 C.3     1  UNL1        0.1487
     31 C          67.0440   92.3497   14.9656 C.3     1  UNL1        0.0250
     32 C          68.1623   91.9440   14.0520 C.3     1  UNL1        0.0021
     33 C          65.9256   92.7555   15.8792 C.3     1  UNL1        0.0021
     34 C          67.9584   92.2113   16.1466 C.3     1  UNL1        0.0021
     35 N          66.1657   93.7341   12.9501 N.am    1  UNL1       -0.2973
     36 C          66.9009   93.7398   11.6427 C.2     1  UNL1        0.2370
     37 O          67.6000   92.4998   11.1699 O.2     1  UNL1       -0.2737
     38 H          65.7068   94.5479   13.2604 H       1  UNL1        0.1499
     39 C          66.9371   94.9856   10.8080 C.3     1  UNL1        0.1316
     40 C          66.1056   96.1724   11.1954 C.3     1  UNL1        0.0270
     41 N          67.8049   95.0446    9.5859 N.3     1  UNL1       -0.2902
     42 C          67.2354   95.5253    8.2841 C.3     1  UNL1        0.0862
     43 H          68.1509   94.0987    9.4245 H       1  UNL1        0.1237
     44 O          63.7567   88.1394   15.7034 O.3     1  UNL1       -0.4701
     45 C          62.9526   88.4038   16.9419 C.3     1  UNL1        0.2525
     46 N          61.6788   87.9252    7.9218 N.pl3   1  UNL1       -0.3196
     47 H          62.3892   88.5233    7.5948 H       1  UNL1        0.1481
     48 C          60.6421   91.1327    4.9407 C.ar    1  UNL1        0.0850
     49 C          60.9877   90.0636    5.9344 C.ar    1  UNL1        0.0220
     50 C          59.8964   89.3008    6.6254 C.ar    1  UNL1        0.0505
     51 C          60.2419   88.2317    7.6191 C.ar    1  UNL1        0.1316
     52 N          59.1507   87.4690    8.3101 N.ar    1  UNL1       -0.2092
     53 C          57.7139   87.7754    8.0073 C.ar    1  UNL1        0.2000
     54 N          57.3684   88.8446    7.0136 N.ar    1  UNL1       -0.2238
     55 C          58.4596   89.6073    6.3227 C.ar    1  UNL1        0.0888
     56 C          58.1140   90.6765    5.3289 C.ar    1  UNL1        0.0574
     57 C          59.2052   91.4392    4.6380 C.ar    1  UNL1        0.1535
     58 C          61.8451   91.8557    2.7544 C.2     1  UNL1        0.2443
     59 O          60.8658   91.0534    1.9501 O.2     1  UNL1       -0.2730
     60 N          61.7333   91.8954    4.2497 N.am    1  UNL1       -0.2802
     61 H          62.3761   92.4221    4.7776 H       1  UNL1        0.1550
     62 C          61.5357   93.5717   -0.0041 C.2     1  UNL1        0.2438
     63 O          60.2669   92.9131    0.4502 O.2     1  UNL1       -0.2731
     64 N          62.7941   93.4072    0.7954 N.am    1  UNL1       -0.2717
     65 C          64.1313   94.0026    0.4674 C.3     1  UNL1        0.0939
     66 C          65.0999   93.5819    1.5327 C.3     1  UNL1        0.0237
     67 C          64.3614   92.7264    2.5190 C.3     1  UNL1        0.0310
     68 C          62.9364   92.6185    2.0634 C.3     1  UNL1        0.1521
     69 C          61.5461   94.3947   -1.2581 C.3     1  UNL1        0.1487
     70 C          60.6933   95.6249   -1.3548 C.3     1  UNL1        0.0250
     71 C          60.0495   95.0811   -2.5957 C.3     1  UNL1        0.0021
     72 C          61.3371   96.1688   -0.1140 C.3     1  UNL1        0.0021
     73 C          59.8406   96.8552   -1.4515 C.3     1  UNL1        0.0021
     74 C          63.4981   94.9002   -2.8963 C.2     1  UNL1        0.2370
     75 O          63.7238   96.2200   -2.2201 O.2     1  UNL1       -0.2737
     76 N          62.4092   93.9876   -2.4154 N.am    1  UNL1       -0.2973
     77 H          62.2610   93.1214   -2.8592 H       1  UNL1        0.1499
     78 C          64.3613   94.4931   -4.0536 C.3     1  UNL1        0.1316
     79 C          64.3810   93.0639   -4.5084 C.3     1  UNL1        0.0270
     80 C          64.5891   96.4172   -5.7845 C.3     1  UNL1        0.0862
     81 N          65.2048   95.5154   -4.7561 N.3     1  UNL1       -0.2902
     82 H          65.5991   96.1183   -4.0340 H       1  UNL1        0.1237
     83 O          58.8596   92.5084    3.6443 O.3     1  UNL1       -0.4701
     84 C          59.5364   93.8451    3.7151 C.3     1  UNL1        0.2525
@<TRIPOS>BOND
     1    80    81    1
     2    81    78    1
     3    78    79    1
     4    78    74    1
     5    74    75    2
     6    74    76   am
     7    69    76    1
     8    69    62    1
     9    62    63    2
    10    62    64   am
    11    64    65    1
    12    65    66    1
    13    66    67    1
    14    67    68    1
    15    68    58    1
    16    58    59    2
    17    58    60   am
    18    60    48    1
    19    48    49   ar
    20    49    50   ar
    21    50    51   ar
    22    51    46    1
    23     1    46    1
    24     1     2    1
    25     2     3    1
    26     3     4    1
    27     4     7    1
    28     7     9    1
    29     9    10   ar
    30    10    11   ar
    31    11    12   ar
    32    12    13   ar
    33    13    14   ar
    34    14    15   ar
    35    15    44    1
    36    44    45    1
    37    15    16   ar
    38    16    19    1
    39    19    20   am
    40    20    21    2
    41    23    20    1
    42    23    24    1
    43    24    25    1
    44    25    26    1
    45    26    27    1
    46    27    28   am
    47    28    29    2
    48    28    30    1
    49    30    35    1
    50    35    36   am
    51    36    37    2
    52    36    39    1
    53    39    40    1
    54    39    41    1
    55    41    42    1
    56    30    31    1
    57    31    32    1
    58    31    33    1
    59    31    34    1
    60    16    17   ar
    61    17    18   ar
    62     4     5    1
    63     5     6    1
    64    51    52   ar
    65    52    53   ar
    66    53    54   ar
    67    54    55   ar
    68    55    56   ar
    69    56    57   ar
    70    57    83    1
    71    83    84    1
    72    69    70    1
    73    70    71    1
    74    70    72    1
    75    70    73    1
    76    68    64    1
    77    57    48   ar
    78    55    50   ar
    79     6     1    1
    80    18     9   ar
    81    18    13   ar
    82    27    23    1
    83    81    82    1
    84    76    77    1
    85    60    61    1
    86    46    47    1
    87     7     8    1
    88    19    22    1
    89    35    38    1
    90    41    43    1
