@<TRIPOS>MOLECULE
*****
 41 44 0 0 0
SMALL
GASTEIGER

@<TRIPOS>ATOM
      1 C          62.8108   86.1162   11.9561 C.ar    1  UNL1        0.0561
      2 C          62.9420   87.5338   12.4284 C.ar    1  UNL1        0.0196
      3 C          63.6582   87.8335   13.7119 C.ar    1  UNL1        0.0768
      4 N          64.2432   86.7157   14.5230 N.ar    1  UNL1       -0.2480
      5 C          64.1120   85.2979   14.0508 C.ar    1  UNL1        0.0812
      6 C          64.6970   84.1801   14.8620 C.ar    1  UNL1        0.0214
      7 C          64.5658   82.7624   14.3897 C.ar    1  UNL1        0.0312
      8 C          63.8497   82.4627   13.1062 C.ar    1  UNL1        0.1402
      9 F          63.7185   81.0450   12.6340 F       1  UNL1       -0.2042
     10 C          63.2647   83.5806   12.2950 C.ar    1  UNL1        0.0313
     11 C          63.3958   84.9982   12.7673 C.ar    1  UNL1        0.0243
     12 C          62.3570   88.6518   11.6172 C.ar    1  UNL1        0.0013
     13 C          63.0958   89.1778   10.4225 C.ar    1  UNL1        0.0000
     14 C          62.5109   90.2957    9.6113 C.ar    1  UNL1        0.0000
     15 C          61.1871   90.8876    9.9949 C.ar    1  UNL1        0.0000
     16 C          60.4483   90.3616   11.1896 C.ar    1  UNL1        0.0000
     17 C          61.0332   89.2437   12.0008 C.ar    1  UNL1        0.0000
     18 N          62.8646   85.3336    9.4793 N.am    1  UNL1       -0.2995
     19 C          62.0947   85.8165   10.6727 C.2     1  UNL1        0.2460
     20 O          60.6086   85.9995   10.5826 O.2     1  UNL1       -0.2701
     21 H          63.8399   85.2134    9.5384 H       1  UNL1        0.1498
     22 C          62.1484   85.0339    8.1958 C.3     1  UNL1        0.1068
     23 C          61.2258   86.0532    7.5960 C.3     1  UNL1        0.0901
     24 C          58.7927   86.9451    7.7813 C.3     1  UNL1        0.0859
     25 N          59.7465   85.8059    7.5756 N.3     1  UNL1       -0.2949
     26 H          59.5284   85.3999    6.6657 H       1  UNL1        0.1233
     27 C          63.7893   89.2513   14.1841 C.3     1  UNL1        0.1109
     28 C          63.3819   89.6173   15.5805 C.3     1  UNL1        0.0278
     29 N          64.3279   90.3028   13.2600 N.pl3   1  UNL1       -0.3142
     30 H          64.1131   90.2712   12.2997 H       1  UNL1        0.1485
     31 C          65.1939   91.4026   13.7989 C.ar    1  UNL1        0.1429
     32 N          65.6932   91.3400   15.2120 N.ar    1  UNL1       -0.2084
     33 C          66.5591   92.4398   15.7509 C.ar    1  UNL1        0.2012
     34 N          66.9259   93.6023   14.8768 N.ar    1  UNL1       -0.2087
     35 C          66.4267   93.6649   13.4637 C.ar    1  UNL1        0.1396
     36 N          66.7935   94.8274   12.5895 N.pl3   1  UNL1       -0.3420
     37 C          65.5607   92.5651   12.9247 C.ar    1  UNL1        0.1308
     38 H          67.3619   95.5492   12.9433 H       1  UNL1        0.1437
     39 H          66.4658   94.8685   11.6621 H       1  UNL1        0.1437
     40 C          65.0615   92.6278   11.5116 C.1     1  UNL1        0.1061
     41 N          64.5623   92.6904   10.0986 N.1     1  UNL1       -0.1906
@<TRIPOS>BOND
     1    24    25    1
     2    25    23    1
     3    23    22    1
     4    22    18    1
     5    18    19   am
     6    19    20    2
     7    19     1    1
     8     1     2   ar
     9     2    12    1
    10    12    13   ar
    11    13    14   ar
    12    14    15   ar
    13    15    16   ar
    14    16    17   ar
    15     2     3   ar
    16     3    27    1
    17    27    28    1
    18    27    29    1
    19    29    31    1
    20    31    32   ar
    21    32    33   ar
    22    33    34   ar
    23    34    35   ar
    24    35    36    1
    25    35    37   ar
    26    37    40    1
    27    40    41    3
    28     3     4   ar
    29     4     5   ar
    30     5     6   ar
    31     6     7   ar
    32     7     8   ar
    33     8     9    1
    34     8    10   ar
    35    10    11   ar
    36    11     1   ar
    37    17    12   ar
    38    37    31   ar
    39    11     5   ar
    40    25    26    1
    41    18    21    1
    42    29    30    1
    43    36    38    1
    44    36    39    1
@<TRIPOS>MOLECULE
*****
 41 44 0 0 0
SMALL
GASTEIGER

@<TRIPOS>ATOM
      1 C          65.0728   91.5111   13.1650 C.ar    1  UNL1        0.0561
      2 C          64.0051   90.4599   13.0967 C.ar    1  UNL1        0.0196
      3 C          63.1053   90.3815   11.8991 C.ar    1  UNL1        0.0768
      4 N          63.2732   91.3544   10.7699 N.ar    1  UNL1       -0.2480
      5 C          64.3409   92.4057   10.8381 C.ar    1  UNL1        0.0812
      6 C          64.5088   93.3786    9.7089 C.ar    1  UNL1        0.0214
      7 C          65.5765   94.4299    9.7772 C.ar    1  UNL1        0.0312
      8 C          66.4764   94.5083   10.9748 C.ar    1  UNL1        0.1402
      9 F          67.5441   95.5597   11.0431 F       1  UNL1       -0.2042
     10 C          66.3085   93.5354   12.1040 C.ar    1  UNL1        0.0313
     11 C          65.2408   92.4841   12.0357 C.ar    1  UNL1        0.0243
     12 C          63.8372   89.4869   14.2259 C.ar    1  UNL1        0.0013
     13 C          63.2047   89.9316   15.5113 C.ar    1  UNL1        0.0000
     14 C          63.0368   88.9587   16.6405 C.ar    1  UNL1        0.0000
     15 C          63.5013   87.5411   16.4844 C.ar    1  UNL1        0.0000
     16 C          64.1338   87.0963   15.1991 C.ar    1  UNL1        0.0000
     17 C          64.3018   88.0692   14.0698 C.ar    1  UNL1        0.0000
     18 N          65.8997   92.7746   15.2793 N.am    1  UNL1       -0.2995
     19 C          65.9727   91.5895   14.3625 C.2     1  UNL1        0.2460
     20 O          66.9455   90.4829   14.6434 O.2     1  UNL1       -0.2701
     21 H          65.2611   93.5010   15.0949 H       1  UNL1        0.1498
     22 C          66.7995   92.8530   16.4768 C.3     1  UNL1        0.1068
     23 C          68.2416   93.2296   16.3080 C.3     1  UNL1        0.0901
     24 C          69.5718   92.4330   14.2234 C.3     1  UNL1        0.0859
     25 N          69.1977   92.2682   15.6666 N.3     1  UNL1       -0.2949
     26 H          70.0644   92.3133   16.2024 H       1  UNL1        0.1233
     27 C          62.0375   89.3301   11.8308 C.3     1  UNL1        0.1109
     28 C          60.7716   89.4946   12.6185 C.3     1  UNL1        0.0278
     29 N          62.2357   88.1144   10.9749 N.pl3   1  UNL1       -0.3142
     30 H          62.9348   87.4600   11.2036 H       1  UNL1        0.1485
     31 C          61.3688   87.8957    9.7705 C.ar    1  UNL1        0.1429
     32 N          60.4483   88.9833    9.3015 N.ar    1  UNL1       -0.2084
     33 C          59.5814   88.7646    8.0971 C.ar    1  UNL1        0.2012
     34 N          59.6348   87.4584    7.3617 N.ar    1  UNL1       -0.2087
     35 C          60.5551   86.3707    7.8308 C.ar    1  UNL1        0.1396
     36 N          60.6085   85.0644    7.0954 N.pl3   1  UNL1       -0.3420
     37 C          61.4222   86.5894    9.0352 C.ar    1  UNL1        0.1308
     38 H          60.0395   84.9209    6.3049 H       1  UNL1        0.1437
     39 H          61.2126   84.3506    7.4032 H       1  UNL1        0.1437
     40 C          62.3425   85.5018    9.5042 C.1     1  UNL1        0.1061
     41 N          63.2628   84.4142    9.9732 N.1     1  UNL1       -0.1906
@<TRIPOS>BOND
     1    24    25    1
     2    25    23    1
     3    23    22    1
     4    22    18    1
     5    18    19   am
     6    19    20    2
     7    19     1    1
     8     1     2   ar
     9     2    12    1
    10    12    13   ar
    11    13    14   ar
    12    14    15   ar
    13    15    16   ar
    14    16    17   ar
    15     2     3   ar
    16     3    27    1
    17    27    28    1
    18    27    29    1
    19    29    31    1
    20    31    32   ar
    21    32    33   ar
    22    33    34   ar
    23    34    35   ar
    24    35    36    1
    25    35    37   ar
    26    37    40    1
    27    40    41    3
    28     3     4   ar
    29     4     5   ar
    30     5     6   ar
    31     6     7   ar
    32     7     8   ar
    33     8     9    1
    34     8    10   ar
    35    10    11   ar
    36    11     1   ar
    37    17    12   ar
    38    37    31   ar
    39    11     5   ar
    40    25    26    1
    41    18    21    1
    42    29    30    1
    43    36    38    1
    44    36    39    1
@<TRIPOS>MOLECULE
*****
 41 44 0 0 0
SMALL
GASTEIGER

@<TRIPOS>ATOM
      1 C          62.8975   89.2128   11.7394 C.ar    1  UNL1        0.0561
      2 C          63.5539   88.8065   13.0255 C.ar    1  UNL1        0.0196
      3 C          63.5515   87.3669   13.4466 C.ar    1  UNL1        0.0768
      4 N          62.8927   86.3335   12.5817 N.ar    1  UNL1       -0.2480
      5 C          62.2363   86.7398   11.2956 C.ar    1  UNL1        0.0812
      6 C          61.5775   85.7064   10.4306 C.ar    1  UNL1        0.0214
      7 C          60.9212   86.1127    9.1446 C.ar    1  UNL1        0.0312
      8 C          60.9236   87.5524    8.7234 C.ar    1  UNL1        0.1402
      9 F          60.2671   87.9586    7.4372 F       1  UNL1       -0.2042
     10 C          61.5823   88.5857    9.5883 C.ar    1  UNL1        0.0313
     11 C          62.2387   88.1794   10.8744 C.ar    1  UNL1        0.0243
     12 C          64.2127   89.8399   13.8905 C.ar    1  UNL1        0.0013
     13 C          65.6308   90.2487   13.6226 C.ar    1  UNL1        0.0000
     14 C          66.2896   91.2820   14.4875 C.ar    1  UNL1        0.0000
     15 C          65.5303   91.9066   15.6204 C.ar    1  UNL1        0.0000
     16 C          64.1121   91.4978   15.8882 C.ar    1  UNL1        0.0000
     17 C          63.4533   90.4645   15.0233 C.ar    1  UNL1        0.0000
     18 N          64.1759   91.3002   10.8684 N.am    1  UNL1       -0.2995
     19 C          62.8999   90.6525   11.3183 C.2     1  UNL1        0.2460
     20 O          61.6263   91.4444   11.3470 O.2     1  UNL1       -0.2701
     21 H          65.0118   90.7804   10.8495 H       1  UNL1        0.1498
     22 C          64.1783   92.7399   10.4472 C.3     1  UNL1        0.1068
     23 C          65.3591   93.6106   10.7591 C.3     1  UNL1        0.0901
     24 C          66.1590   96.0447   11.1896 C.3     1  UNL1        0.0859
     25 N          65.3288   95.0690   10.4095 N.3     1  UNL1       -0.2949
     26 H          65.6231   95.1445    9.4358 H       1  UNL1        0.1233
     27 C          64.2079   86.9606   14.7328 C.3     1  UNL1        0.1109
     28 C          64.0179   87.7917   15.9670 C.3     1  UNL1        0.0278
     29 N          65.0543   85.7233   14.7847 N.pl3   1  UNL1       -0.3142
     30 H          65.9551   85.7594   15.1803 H       1  UNL1        0.1485
     31 C          64.5281   84.4311   14.2340 C.ar    1  UNL1        0.1429
     32 N          65.2806   83.7155   13.1515 N.ar    1  UNL1       -0.2084
     33 C          64.7544   82.4233   12.6007 C.ar    1  UNL1        0.2012
     34 N          63.4758   81.8467   13.1325 N.ar    1  UNL1       -0.2087
     35 C          62.7234   82.5622   14.2150 C.ar    1  UNL1        0.1396
     36 N          61.4449   81.9856   14.7467 N.pl3   1  UNL1       -0.3420
     37 C          63.2496   83.8545   14.7658 C.ar    1  UNL1        0.1308
     38 H          61.0995   81.1374   14.3853 H       1  UNL1        0.1437
     39 H          60.9510   82.4552   15.4572 H       1  UNL1        0.1437
     40 C          62.4972   84.5700   15.8482 C.1     1  UNL1        0.1061
     41 N          61.7447   85.2856   16.9307 N.1     1  UNL1       -0.1906
@<TRIPOS>BOND
     1    24    25    1
     2    25    23    1
     3    23    22    1
     4    22    18    1
     5    18    19   am
     6    19    20    2
     7    19     1    1
     8     1     2   ar
     9     2    12    1
    10    12    13   ar
    11    13    14   ar
    12    14    15   ar
    13    15    16   ar
    14    16    17   ar
    15     2     3   ar
    16     3    27    1
    17    27    28    1
    18    27    29    1
    19    29    31    1
    20    31    32   ar
    21    32    33   ar
    22    33    34   ar
    23    34    35   ar
    24    35    36    1
    25    35    37   ar
    26    37    40    1
    27    40    41    3
    28     3     4   ar
    29     4     5   ar
    30     5     6   ar
    31     6     7   ar
    32     7     8   ar
    33     8     9    1
    34     8    10   ar
    35    10    11   ar
    36    11     1   ar
    37    17    12   ar
    38    37    31   ar
    39    11     5   ar
    40    25    26    1
    41    18    21    1
    42    29    30    1
    43    36    38    1
    44    36    39    1
@<TRIPOS>MOLECULE
*****
 41 44 0 0 0
SMALL
GASTEIGER

@<TRIPOS>ATOM
      1 C          64.9172   91.4396   13.4427 C.ar    1  UNL1        0.0561
      2 C          63.9539   90.2946   13.3391 C.ar    1  UNL1        0.0196
      3 C          63.1914   90.0686   12.0672 C.ar    1  UNL1        0.0768
      4 N          63.3924   90.9876   10.8989 N.ar    1  UNL1       -0.2480
      5 C          64.3558   92.1328   11.0025 C.ar    1  UNL1        0.0812
      6 C          64.5567   93.0518    9.8342 C.ar    1  UNL1        0.0214
      7 C          65.5201   94.1969    9.9378 C.ar    1  UNL1        0.0312
      8 C          66.2825   94.4229   11.2097 C.ar    1  UNL1        0.1402
      9 F          67.2458   95.5680   11.3132 F       1  UNL1       -0.2042
     10 C          66.0815   93.5038   12.3779 C.ar    1  UNL1        0.0313
     11 C          65.1182   92.3588   12.2743 C.ar    1  UNL1        0.0243
     12 C          63.7529   89.3754   14.5074 C.ar    1  UNL1        0.0013
     13 C          64.3904   88.0177   14.5118 C.ar    1  UNL1        0.0000
     14 C          64.1895   87.0986   15.6800 C.ar    1  UNL1        0.0000
     15 C          63.3510   87.5372   16.8438 C.ar    1  UNL1        0.0000
     16 C          62.7134   88.8950   16.8394 C.ar    1  UNL1        0.0000
     17 C          62.9144   89.8141   15.6712 C.ar    1  UNL1        0.0000
     18 N          67.1155   91.2431   14.8134 N.am    1  UNL1       -0.2995
     19 C          65.6796   91.6656   14.7145 C.2     1  UNL1        0.2460
     20 O          65.0062   92.3141   15.8875 O.2     1  UNL1       -0.2701
     21 H          67.5575   90.8175   14.0435 H       1  UNL1        0.1498
     22 C          67.8779   91.4691   16.0853 C.3     1  UNL1        0.1068
     23 C          69.0915   92.3506   16.0857 C.3     1  UNL1        0.0901
     24 C          69.2680   94.9426   16.0696 C.3     1  UNL1        0.0859
     25 N          69.0756   93.6492   15.3349 N.3     1  UNL1       -0.2949
     26 H          69.8165   93.5944   14.6361 H       1  UNL1        0.1233
     27 C          62.2281   88.9235   11.9636 C.3     1  UNL1        0.1109
     28 C          60.7938   89.1799   11.6071 C.3     1  UNL1        0.0278
     29 N          62.6990   87.5220   12.2166 N.pl3   1  UNL1       -0.3142
     30 H          62.9570   87.2459   13.1257 H       1  UNL1        0.1485
     31 C          62.7768   86.5411   11.0844 C.ar    1  UNL1        0.1429
     32 N          62.4846   86.9887    9.6828 N.ar    1  UNL1       -0.2084
     33 C          62.5624   86.0079    8.5507 C.ar    1  UNL1        0.2012
     34 N          62.9324   84.5794    8.8200 N.ar    1  UNL1       -0.2087
     35 C          63.2245   84.1317   10.2215 C.ar    1  UNL1        0.1396
     36 N          63.5945   82.7033   10.4909 N.pl3   1  UNL1       -0.3420
     37 C          63.1467   85.1126   11.3538 C.ar    1  UNL1        0.1308
     38 H          63.6456   82.0595    9.7478 H       1  UNL1        0.1437
     39 H          63.7863   82.4095   11.4107 H       1  UNL1        0.1437
     40 C          63.4389   84.6650   12.7553 C.1     1  UNL1        0.1061
     41 N          63.7311   84.2174   14.1568 N.1     1  UNL1       -0.1906
@<TRIPOS>BOND
     1    24    25    1
     2    25    23    1
     3    23    22    1
     4    22    18    1
     5    18    19   am
     6    19    20    2
     7    19     1    1
     8     1     2   ar
     9     2    12    1
    10    12    13   ar
    11    13    14   ar
    12    14    15   ar
    13    15    16   ar
    14    16    17   ar
    15     2     3   ar
    16     3    27    1
    17    27    28    1
    18    27    29    1
    19    29    31    1
    20    31    32   ar
    21    32    33   ar
    22    33    34   ar
    23    34    35   ar
    24    35    36    1
    25    35    37   ar
    26    37    40    1
    27    40    41    3
    28     3     4   ar
    29     4     5   ar
    30     5     6   ar
    31     6     7   ar
    32     7     8   ar
    33     8     9    1
    34     8    10   ar
    35    10    11   ar
    36    11     1   ar
    37    17    12   ar
    38    37    31   ar
    39    11     5   ar
    40    25    26    1
    41    18    21    1
    42    29    30    1
    43    36    38    1
    44    36    39    1
@<TRIPOS>MOLECULE
*****
 41 44 0 0 0
SMALL
GASTEIGER

@<TRIPOS>ATOM
      1 C          62.9644   84.9758   11.9631 C.ar    1  UNL1        0.0561
      2 C          62.5901   86.1854   11.1589 C.ar    1  UNL1        0.0196
      3 C          62.8336   87.5584   11.7117 C.ar    1  UNL1        0.0768
      4 N          63.4514   87.7218   13.0687 N.ar    1  UNL1       -0.2480
      5 C          63.8257   86.5123   13.8730 C.ar    1  UNL1        0.0812
      6 C          64.4435   86.6757   15.2300 C.ar    1  UNL1        0.0214
      7 C          64.8178   85.4661   16.0343 C.ar    1  UNL1        0.0312
      8 C          64.5743   84.0931   15.4815 C.ar    1  UNL1        0.1402
      9 F          64.9486   82.8835   16.2858 F       1  UNL1       -0.2042
     10 C          63.9565   83.9297   14.1244 C.ar    1  UNL1        0.0313
     11 C          63.5822   85.1393   13.3202 C.ar    1  UNL1        0.0243
     12 C          61.9723   86.0220    9.8018 C.ar    1  UNL1        0.0013
     13 C          62.7973   85.5087    8.6590 C.ar    1  UNL1        0.0000
     14 C          62.1795   85.3453    7.3020 C.ar    1  UNL1        0.0000
     15 C          60.7367   85.6952    7.0877 C.ar    1  UNL1        0.0000
     16 C          59.9117   86.2084    8.2304 C.ar    1  UNL1        0.0000
     17 C          60.5295   86.3718    9.5875 C.ar    1  UNL1        0.0000
     18 N          63.8285   82.8662   10.7170 N.am    1  UNL1       -0.2995
     19 C          62.7209   83.6029   11.4103 C.2     1  UNL1        0.2460
     20 O          61.3699   82.9665   11.5508 O.2     1  UNL1       -0.2701
     21 H          64.7153   83.2838   10.6248 H       1  UNL1        0.1498
     22 C          63.5850   81.4932   10.1642 C.3     1  UNL1        0.1068
     23 C          63.1796   80.3769   11.0804 C.3     1  UNL1        0.0901
     24 C          62.0498   80.0938   13.4028 C.3     1  UNL1        0.0859
     25 N          63.1947   80.5829   12.5661 N.3     1  UNL1       -0.2949
     26 H          64.0343   80.1233   12.9185 H       1  UNL1        0.1233
     27 C          62.4592   88.7680   10.9074 C.3     1  UNL1        0.1109
     28 C          62.2502   88.6489    9.4268 C.3     1  UNL1        0.0278
     29 N          62.2939   90.0966   11.5837 N.pl3   1  UNL1       -0.3142
     30 H          61.4119   90.3682   11.9264 H       1  UNL1        0.1485
     31 C          63.4726   91.0115   11.7377 C.ar    1  UNL1        0.1429
     32 N          64.0619   91.6847   10.5337 N.ar    1  UNL1       -0.2084
     33 C          65.2405   92.5996   10.6877 C.ar    1  UNL1        0.2012
     34 N          65.8299   92.8414   12.0457 N.ar    1  UNL1       -0.2087
     35 C          65.2406   92.1682   13.2497 C.ar    1  UNL1        0.1396
     36 N          65.8300   92.4100   14.6077 N.pl3   1  UNL1       -0.3420
     37 C          64.0619   91.2533   13.0957 C.ar    1  UNL1        0.1308
     38 H          66.6036   93.0105   14.7088 H       1  UNL1        0.1437
     39 H          65.4433   91.9681   15.3979 H       1  UNL1        0.1437
     40 C          63.4727   90.5801   14.2997 C.1     1  UNL1        0.1061
     41 N          62.8835   89.9069   15.5037 N.1     1  UNL1       -0.1906
@<TRIPOS>BOND
     1    24    25    1
     2    25    23    1
     3    23    22    1
     4    22    18    1
     5    18    19   am
     6    19    20    2
     7    19     1    1
     8     1     2   ar
     9     2    12    1
    10    12    13   ar
    11    13    14   ar
    12    14    15   ar
    13    15    16   ar
    14    16    17   ar
    15     2     3   ar
    16     3    27    1
    17    27    28    1
    18    27    29    1
    19    29    31    1
    20    31    32   ar
    21    32    33   ar
    22    33    34   ar
    23    34    35   ar
    24    35    36    1
    25    35    37   ar
    26    37    40    1
    27    40    41    3
    28     3     4   ar
    29     4     5   ar
    30     5     6   ar
    31     6     7   ar
    32     7     8   ar
    33     8     9    1
    34     8    10   ar
    35    10    11   ar
    36    11     1   ar
    37    17    12   ar
    38    37    31   ar
    39    11     5   ar
    40    25    26    1
    41    18    21    1
    42    29    30    1
    43    36    38    1
    44    36    39    1
@<TRIPOS>MOLECULE
*****
 41 44 0 0 0
SMALL
GASTEIGER

@<TRIPOS>ATOM
      1 C          62.5936   87.8833   11.1201 C.ar    1  UNL1        0.0561
      2 C          62.7003   86.4420   10.7184 C.ar    1  UNL1        0.0196
      3 C          63.3005   85.4427   11.6624 C.ar    1  UNL1        0.0768
      4 N          63.7940   85.8846   13.0081 N.ar    1  UNL1       -0.2480
      5 C          63.6874   87.3259   13.4099 C.ar    1  UNL1        0.0812
      6 C          64.1810   87.7678   14.7557 C.ar    1  UNL1        0.0214
      7 C          64.0743   89.2091   15.1574 C.ar    1  UNL1        0.0312
      8 C          63.4741   90.2084   14.2134 C.ar    1  UNL1        0.1402
      9 F          63.3675   91.6497   14.6152 F       1  UNL1       -0.2042
     10 C          62.9805   89.7665   12.8677 C.ar    1  UNL1        0.0313
     11 C          63.0872   88.3252   12.4659 C.ar    1  UNL1        0.0243
     12 C          62.2067   86.0000    9.3726 C.ar    1  UNL1        0.0013
     13 C          60.7486   86.1056    9.0368 C.ar    1  UNL1        0.0000
     14 C          60.2550   85.6636    7.6910 C.ar    1  UNL1        0.0000
     15 C          61.2195   85.1161    6.6812 C.ar    1  UNL1        0.0000
     16 C          62.6776   85.0106    7.0170 C.ar    1  UNL1        0.0000
     17 C          63.1712   85.4526    8.3627 C.ar    1  UNL1        0.0000
     18 N          60.5684   88.7330    9.7321 N.am    1  UNL1       -0.2995
     19 C          61.9934   88.8826   10.1761 C.2     1  UNL1        0.2460
     20 O          62.8181   90.0314    9.6762 O.2     1  UNL1       -0.2701
     21 H          60.0271   87.9790   10.0603 H       1  UNL1        0.1498
     22 C          59.9682   89.7323    8.7881 C.3     1  UNL1        0.1068
     23 C          59.4684   89.2892    7.4451 C.3     1  UNL1        0.0901
     24 C          58.6867   90.8090    5.4883 C.3     1  UNL1        0.0859
     25 N          59.7849   90.0986    6.2226 N.3     1  UNL1       -0.2949
     26 H          60.4575   90.8108    6.5070 H       1  UNL1        0.1233
     27 C          63.4071   84.0014   11.2606 C.3     1  UNL1        0.1109
     28 C          64.7167   83.4526   10.7769 C.3     1  UNL1        0.0278
     29 N          62.2043   83.1090   11.3424 N.pl3   1  UNL1       -0.3142
     30 H          61.3075   83.4740   11.1640 H       1  UNL1        0.1485
     31 C          62.3677   81.6606   11.6962 C.ar    1  UNL1        0.1429
     32 N          62.5586   80.6408   10.6127 N.ar    1  UNL1       -0.2084
     33 C          62.7221   79.1924   10.9665 C.ar    1  UNL1        0.2012
     34 N          62.6947   78.7635   12.4036 N.ar    1  UNL1       -0.2087
     35 C          62.5038   79.7832   13.4870 C.ar    1  UNL1        0.1396
     36 N          62.4764   79.3544   14.9241 N.pl3   1  UNL1       -0.3420
     37 C          62.3403   81.2318   13.1333 C.ar    1  UNL1        0.1308
     38 H          62.5837   78.4037   15.1563 H       1  UNL1        0.1437
     39 H          62.3511   80.0236   15.6352 H       1  UNL1        0.1437
     40 C          62.1494   82.2514   14.2167 C.1     1  UNL1        0.1061
     41 N          61.9586   83.2710   15.3001 N.1     1  UNL1       -0.1906
@<TRIPOS>BOND
     1    24    25    1
     2    25    23    1
     3    23    22    1
     4    22    18    1
     5    18    19   am
     6    19    20    2
     7    19     1    1
     8     1     2   ar
     9     2    12    1
    10    12    13   ar
    11    13    14   ar
    12    14    15   ar
    13    15    16   ar
    14    16    17   ar
    15     2     3   ar
    16     3    27    1
    17    27    28    1
    18    27    29    1
    19    29    31    1
    20    31    32   ar
    21    32    33   ar
    22    33    34   ar
    23    34    35   ar
    24    35    36    1
    25    35    37   ar
    26    37    40    1
    27    40    41    3
    28     3     4   ar
    29     4     5   ar
    30     5     6   ar
    31     6     7   ar
    32     7     8   ar
    33     8     9    1
    34     8    10   ar
    35    10    11   ar
    36    11     1   ar
    37    17    12   ar
    38    37    31   ar
    39    11     5   ar
    40    25    26    1
    41    18    21    1
    42    29    30    1
    43    36    38    1
    44    36    39    1
@<TRIPOS>MOLECULE
*****
 41 44 0 0 0
SMALL
GASTEIGER

@<TRIPOS>ATOM
      1 C          62.4764   86.0166   11.6324 C.ar    1  UNL1        0.0561
      2 C          63.1129   86.8525   12.7030 C.ar    1  UNL1        0.0196
      3 C          63.0545   88.3490   12.6200 C.ar    1  UNL1        0.0768
      4 N          62.3597   89.0097   11.4665 N.ar    1  UNL1       -0.2480
      5 C          61.7232   88.1738   10.3958 C.ar    1  UNL1        0.0812
      6 C          61.0283   88.8345    9.2423 C.ar    1  UNL1        0.0214
      7 C          60.3919   87.9986    8.1717 C.ar    1  UNL1        0.0312
      8 C          60.4503   86.5021    8.2547 C.ar    1  UNL1        0.1402
      9 F          59.8138   85.6662    7.1840 F       1  UNL1       -0.2042
     10 C          61.1451   85.8414    9.4082 C.ar    1  UNL1        0.0313
     11 C          61.7815   86.6773   10.4788 C.ar    1  UNL1        0.0243
     12 C          63.8077   86.1918   13.8566 C.ar    1  UNL1        0.0013
     13 C          65.1533   85.5591   13.6589 C.ar    1  UNL1        0.0000
     14 C          65.8482   84.8984   14.8124 C.ar    1  UNL1        0.0000
     15 C          65.1975   84.8705   16.1636 C.ar    1  UNL1        0.0000
     16 C          63.8519   85.5032   16.3613 C.ar    1  UNL1        0.0000
     17 C          63.1570   86.1639   15.2078 C.ar    1  UNL1        0.0000
     18 N          63.3662   83.7464   10.7353 N.am    1  UNL1       -0.2995
     19 C          62.5348   84.5200   11.7153 C.2     1  UNL1        0.2460
     20 O          61.7618   83.7971   12.7782 O.2     1  UNL1       -0.2701
     21 H          63.8735   84.2209   10.0377 H       1  UNL1        0.1498
     22 C          63.4246   82.2498   10.8182 C.3     1  UNL1        0.1068
     23 C          64.1639   81.5894   11.9439 C.3     1  UNL1        0.0901
     24 C          62.4032   80.3340   13.3841 C.3     1  UNL1        0.0859
     25 N          63.4821   81.3689   13.2617 N.3     1  UNL1       -0.2949
     26 H          64.2093   81.1166   13.9309 H       1  UNL1        0.1233
     27 C          63.6910   89.1849   13.6907 C.3     1  UNL1        0.1109
     28 C          64.5719   88.5414   14.7202 C.3     1  UNL1        0.0278
     29 N          63.4465   90.6643   13.7318 N.pl3   1  UNL1       -0.3142
     30 H          62.5251   91.0108   13.7457 H       1  UNL1        0.1485
     31 C          64.6059   91.6157   13.7518 C.ar    1  UNL1        0.1429
     32 N          65.2977   91.9280   15.0456 N.ar    1  UNL1       -0.2084
     33 C          66.4571   92.8795   15.0656 C.ar    1  UNL1        0.2012
     34 N          66.9248   93.5187   13.7918 N.ar    1  UNL1       -0.2087
     35 C          66.2331   93.2064   12.4979 C.ar    1  UNL1        0.1396
     36 N          66.7009   93.8456   11.2241 N.pl3   1  UNL1       -0.3420
     37 C          65.0737   92.2549   12.4779 C.ar    1  UNL1        0.1308
     38 H          67.4619   94.4700   11.2372 H       1  UNL1        0.1437
     39 H          66.2469   93.6406   10.3749 H       1  UNL1        0.1437
     40 C          64.3820   91.9426   11.1841 C.1     1  UNL1        0.1061
     41 N          63.6903   91.6304    9.8903 N.1     1  UNL1       -0.1906
@<TRIPOS>BOND
     1    24    25    1
     2    25    23    1
     3    23    22    1
     4    22    18    1
     5    18    19   am
     6    19    20    2
     7    19     1    1
     8     1     2   ar
     9     2    12    1
    10    12    13   ar
    11    13    14   ar
    12    14    15   ar
    13    15    16   ar
    14    16    17   ar
    15     2     3   ar
    16     3    27    1
    17    27    28    1
    18    27    29    1
    19    29    31    1
    20    31    32   ar
    21    32    33   ar
    22    33    34   ar
    23    34    35   ar
    24    35    36    1
    25    35    37   ar
    26    37    40    1
    27    40    41    3
    28     3     4   ar
    29     4     5   ar
    30     5     6   ar
    31     6     7   ar
    32     7     8   ar
    33     8     9    1
    34     8    10   ar
    35    10    11   ar
    36    11     1   ar
    37    17    12   ar
    38    37    31   ar
    39    11     5   ar
    40    25    26    1
    41    18    21    1
    42    29    30    1
    43    36    38    1
    44    36    39    1
@<TRIPOS>MOLECULE
*****
 41 44 0 0 0
SMALL
GASTEIGER

@<TRIPOS>ATOM
      1 C          62.4287   85.3363   10.4959 C.ar    1  UNL1        0.0561
      2 C          62.2210   86.3844   11.5487 C.ar    1  UNL1        0.0196
      3 C          61.4148   87.6105   11.2376 C.ar    1  UNL1        0.0768
      4 N          60.8165   87.7886    9.8738 N.ar    1  UNL1       -0.2480
      5 C          61.0242   86.7405    8.8209 C.ar    1  UNL1        0.0812
      6 C          60.4258   86.9186    7.4570 C.ar    1  UNL1        0.0214
      7 C          60.6336   85.8705    6.4043 C.ar    1  UNL1        0.0312
      8 C          61.4397   84.6444    6.7153 C.ar    1  UNL1        0.1402
      9 F          61.6474   83.5963    5.6625 F       1  UNL1       -0.2042
     10 C          62.0381   84.4663    8.0792 C.ar    1  UNL1        0.0313
     11 C          61.8303   85.5144    9.1320 C.ar    1  UNL1        0.0243
     12 C          62.8194   86.2063   12.9127 C.ar    1  UNL1        0.0013
     13 C          62.3335   85.1043   13.8068 C.ar    1  UNL1        0.0000
     14 C          62.9318   84.9262   15.1707 C.ar    1  UNL1        0.0000
     15 C          64.0160   85.8502   15.6405 C.ar    1  UNL1        0.0000
     16 C          64.5019   86.9522   14.7463 C.ar    1  UNL1        0.0000
     17 C          63.9036   87.1303   13.3825 C.ar    1  UNL1        0.0000
     18 N          62.6132   82.9771   11.5685 N.am    1  UNL1       -0.2995
     19 C          63.2348   84.1102   10.8070 C.2     1  UNL1        0.2460
     20 O          64.6626   84.0171   10.3567 O.2     1  UNL1       -0.2701
     21 H          61.6761   83.0382   11.8641 H       1  UNL1        0.1498
     22 C          63.4193   81.7510   11.8796 C.3     1  UNL1        0.1068
     23 C          63.7925   81.4388   13.2985 C.3     1  UNL1        0.0901
     24 C          61.3638   81.0964   14.1552 C.3     1  UNL1        0.0859
     25 N          62.8179   80.7302   14.1918 N.3     1  UNL1       -0.2949
     26 H          62.8775   79.7378   13.9640 H       1  UNL1        0.1233
     27 C          61.2071   88.6586   12.2905 C.3     1  UNL1        0.1109
     28 C          59.8172   89.0318   12.7132 C.3     1  UNL1        0.0278
     29 N          62.3893   89.3333   12.9206 N.pl3   1  UNL1       -0.3142
     30 H          62.6630   89.0937   13.8354 H       1  UNL1        0.1485
     31 C          63.1545   90.3731   12.1569 C.ar    1  UNL1        0.1429
     32 N          62.9338   90.5341   10.6819 N.ar    1  UNL1       -0.2084
     33 C          63.6990   91.5739    9.9182 C.ar    1  UNL1        0.2012
     34 N          64.6848   92.4527   10.6294 N.ar    1  UNL1       -0.2087
     35 C          64.9054   92.2918   12.1043 C.ar    1  UNL1        0.1396
     36 N          65.8912   93.1707   12.8154 N.pl3   1  UNL1       -0.3420
     37 C          64.1403   91.2520   12.8681 C.ar    1  UNL1        0.1308
     38 H          66.3934   93.8531   12.3142 H       1  UNL1        0.1437
     39 H          66.0361   93.0650   13.7835 H       1  UNL1        0.1437
     40 C          64.3609   91.0910   14.3430 C.1     1  UNL1        0.1061
     41 N          64.5816   90.9301   15.8179 N.1     1  UNL1       -0.1906
@<TRIPOS>BOND
     1    24    25    1
     2    25    23    1
     3    23    22    1
     4    22    18    1
     5    18    19   am
     6    19    20    2
     7    19     1    1
     8     1     2   ar
     9     2    12    1
    10    12    13   ar
    11    13    14   ar
    12    14    15   ar
    13    15    16   ar
    14    16    17   ar
    15     2     3   ar
    16     3    27    1
    17    27    28    1
    18    27    29    1
    19    29    31    1
    20    31    32   ar
    21    32    33   ar
    22    33    34   ar
    23    34    35   ar
    24    35    36    1
    25    35    37   ar
    26    37    40    1
    27    40    41    3
    28     3     4   ar
    29     4     5   ar
    30     5     6   ar
    31     6     7   ar
    32     7     8   ar
    33     8     9    1
    34     8    10   ar
    35    10    11   ar
    36    11     1   ar
    37    17    12   ar
    38    37    31   ar
    39    11     5   ar
    40    25    26    1
    41    18    21    1
    42    29    30    1
    43    36    38    1
    44    36    39    1
@<TRIPOS>MOLECULE
*****
 41 44 0 0 0
SMALL
GASTEIGER

@<TRIPOS>ATOM
      1 C          64.8597   91.2460   13.4618 C.ar    1  UNL1        0.0561
      2 C          63.9380   90.0692   13.3364 C.ar    1  UNL1        0.0196
      3 C          63.1975   89.8299   12.0541 C.ar    1  UNL1        0.0768
      4 N          63.3786   90.7672   10.8972 N.ar    1  UNL1       -0.2480
      5 C          64.3004   91.9440   11.0225 C.ar    1  UNL1        0.0812
      6 C          64.4815   92.8814    9.8656 C.ar    1  UNL1        0.0214
      7 C          65.4032   94.0581    9.9910 C.ar    1  UNL1        0.0312
      8 C          66.1437   94.2975   11.2733 C.ar    1  UNL1        0.1402
      9 F          67.0654   95.4743   11.3986 F       1  UNL1       -0.2042
     10 C          65.9626   93.3601   12.4302 C.ar    1  UNL1        0.0313
     11 C          65.0409   92.1834   12.3048 C.ar    1  UNL1        0.0243
     12 C          63.7569   89.1318   14.4934 C.ar    1  UNL1        0.0013
     13 C          64.4731   87.8139   14.5101 C.ar    1  UNL1        0.0000
     14 C          64.2919   86.8765   15.6670 C.ar    1  UNL1        0.0000
     15 C          63.3946   87.2570   16.8071 C.ar    1  UNL1        0.0000
     16 C          62.6784   88.5749   16.7904 C.ar    1  UNL1        0.0000
     17 C          62.8595   89.5123   15.6335 C.ar    1  UNL1        0.0000
     18 N          67.0733   91.2128   14.8216 N.am    1  UNL1       -0.2995
     19 C          65.6003   91.4854   14.7441 C.2     1  UNL1        0.2460
     20 O          64.8679   91.9973   15.9488 O.2     1  UNL1       -0.2701
     21 H          67.5540   90.8768   14.0309 H       1  UNL1        0.1498
     22 C          67.8138   91.4521   16.1039 C.3     1  UNL1        0.1068
     23 C          68.9056   92.4792   16.1590 C.3     1  UNL1        0.0901
     24 C          69.4223   95.0253   16.1781 C.3     1  UNL1        0.0859
     25 N          68.6671   93.8572   15.6166 N.3     1  UNL1       -0.2949
     26 H          68.8783   93.8218   14.6194 H       1  UNL1        0.1233
     27 C          62.2758   88.6531   11.9288 C.3     1  UNL1        0.1109
     28 C          60.9560   88.6549   12.6417 C.3     1  UNL1        0.0278
     29 N          62.6738   87.4746   11.0906 N.pl3   1  UNL1       -0.3142
     30 H          62.9066   87.6010   10.1424 H       1  UNL1        0.1485
     31 C          62.7173   86.1034   11.6971 C.ar    1  UNL1        0.1429
     32 N          62.6139   85.9375   13.1843 N.ar    1  UNL1       -0.2084
     33 C          62.6574   84.5663   13.7908 C.ar    1  UNL1        0.2012
     34 N          62.8043   83.3609   12.9102 N.ar    1  UNL1       -0.2087
     35 C          62.9077   83.5268   11.4230 C.ar    1  UNL1        0.1396
     36 N          63.0546   82.3214   10.5423 N.pl3   1  UNL1       -0.3420
     37 C          62.8642   84.8980   10.8164 C.ar    1  UNL1        0.1308
     38 H          63.0832   81.4215   10.9404 H       1  UNL1        0.1437
     39 H          63.1225   82.4303    9.5662 H       1  UNL1        0.1437
     40 C          62.9676   85.0639    9.3292 C.1     1  UNL1        0.1061
     41 N          63.0710   85.2297    7.8420 N.1     1  UNL1       -0.1906
@<TRIPOS>BOND
     1    24    25    1
     2    25    23    1
     3    23    22    1
     4    22    18    1
     5    18    19   am
     6    19    20    2
     7    19     1    1
     8     1     2   ar
     9     2    12    1
    10    12    13   ar
    11    13    14   ar
    12    14    15   ar
    13    15    16   ar
    14    16    17   ar
    15     2     3   ar
    16     3    27    1
    17    27    28    1
    18    27    29    1
    19    29    31    1
    20    31    32   ar
    21    32    33   ar
    22    33    34   ar
    23    34    35   ar
    24    35    36    1
    25    35    37   ar
    26    37    40    1
    27    40    41    3
    28     3     4   ar
    29     4     5   ar
    30     5     6   ar
    31     6     7   ar
    32     7     8   ar
    33     8     9    1
    34     8    10   ar
    35    10    11   ar
    36    11     1   ar
    37    17    12   ar
    38    37    31   ar
    39    11     5   ar
    40    25    26    1
    41    18    21    1
    42    29    30    1
    43    36    38    1
    44    36    39    1
