@<TRIPOS>MOLECULE
*****
 32 36 0 0 0
SMALL
GASTEIGER

@<TRIPOS>ATOM
      1 C          63.0705   86.3609   12.5248 C.2     1  UNL1        0.2506
      2 O          63.5830   87.2245   13.6391 O.2     1  UNL1       -0.2699
      3 N          62.3123   86.9769   11.3865 N.am    1  UNL1       -0.2723
      4 C          61.7999   86.1133   10.2722 C.3     1  UNL1        0.1257
      5 C          61.0416   86.7293    9.1339 C.3     1  UNL1        0.1637
      6 O          60.7959   88.2088    9.1099 O.3     1  UNL1       -0.3502
      7 C          61.3084   89.0724   10.2242 C.3     1  UNL1        0.1622
      8 C          62.0666   88.4565   11.3625 C.3     1  UNL1        0.1096
      9 C          64.0467   81.9200   10.0098 C.3     1  UNL1        0.0310
     10 C          63.8044   82.6609   11.2913 C.ar    1  UNL1       -0.0216
     11 C          63.8078   81.9223   12.5968 C.ar    1  UNL1       -0.0026
     12 C          63.5654   82.6632   13.8783 C.ar    1  UNL1        0.0207
     13 C          63.3197   84.1427   13.8544 C.ar    1  UNL1        0.1072
     14 C          63.3163   84.8813   12.5488 C.ar    1  UNL1        0.0726
     15 C          63.5586   84.1404   11.2673 C.ar    1  UNL1        0.0018
     16 N          63.0773   84.8837   15.1359 N.ar    1  UNL1       -0.1477
     17 N          64.1208   85.5627   15.9726 N.ar    1  UNL1       -0.1447
     18 C          63.4373   86.1743   17.1596 C.ar    1  UNL1        0.1446
     19 C          61.9715   85.8733   17.0564 C.ar    1  UNL1        0.1446
     20 N          61.7490   85.0756   15.8057 N.ar    1  UNL1       -0.1447
     21 C          62.5791   89.3200   12.4768 C.3     1  UNL1        0.0488
     22 C          63.5736   90.4051   12.1880 C.ar    1  UNL1       -0.0189
     23 C          63.5699   91.0902   10.8537 C.ar    1  UNL1       -0.0041
     24 C          64.5645   92.1753   10.5649 C.ar    1  UNL1        0.0012
     25 C          65.5627   92.5754   11.6105 C.ar    1  UNL1        0.0191
     26 C          65.5664   91.8902   12.9450 C.ar    1  UNL1        0.0825
     27 C          64.5719   90.8051   13.2337 C.ar    1  UNL1        0.0149
     28 N          66.5647   92.2903   13.9906 N.ar    1  UNL1       -0.2282
     29 C          66.2565   92.6368   15.4171 C.ar    1  UNL1        0.1020
     30 C          67.5478   92.9747   16.1015 C.ar    1  UNL1        0.0431
     31 C          68.6541   92.8370   15.0980 C.ar    1  UNL1        0.1221
     32 N          68.0466   92.4140   13.7934 N.ar    1  UNL1       -0.1635
@<TRIPOS>BOND
     1     9    10    1
     2    10    11   ar
     3    11    12   ar
     4    12    13   ar
     5    13    16    1
     6    16    17   ar
     7    17    18   ar
     8    18    19   ar
     9    19    20   ar
    10    13    14   ar
    11    14     1    1
    12     1     2    2
    13     1     3   am
    14     3     4    1
    15     4     5    1
    16     5     6    1
    17     6     7    1
    18     7     8    1
    19     8    21    1
    20    21    22    1
    21    22    23   ar
    22    23    24   ar
    23    24    25   ar
    24    25    26   ar
    25    26    28    1
    26    28    29   ar
    27    29    30   ar
    28    30    31   ar
    29    31    32   ar
    30    26    27   ar
    31    14    15   ar
    32    15    10   ar
    33    20    16   ar
    34     8     3    1
    35    27    22   ar
    36    32    28   ar
@<TRIPOS>MOLECULE
*****
 32 36 0 0 0
SMALL
GASTEIGER

@<TRIPOS>ATOM
      1 C          62.6665   88.5372   11.5349 C.2     1  UNL1        0.2506
      2 O          62.6686   90.0367   11.4973 O.2     1  UNL1       -0.2699
      3 N          63.3046   87.8149   12.6843 N.am    1  UNL1       -0.2723
      4 C          63.3026   86.3154   12.7219 C.3     1  UNL1        0.1257
      5 C          63.9407   85.5931   13.8714 C.3     1  UNL1        0.1637
      6 O          64.5808   86.3703   14.9831 O.3     1  UNL1       -0.3502
      7 C          64.5829   87.8698   14.9455 C.3     1  UNL1        0.1622
      8 C          63.9448   88.5921   13.7962 C.3     1  UNL1        0.1096
      9 C          62.9977   84.9882    7.7541 C.3     1  UNL1        0.0310
     10 C          62.1920   85.9854    8.5327 C.ar    1  UNL1       -0.0216
     11 C          60.7461   86.2055    8.1995 C.ar    1  UNL1       -0.0026
     12 C          59.9404   87.2027    8.9781 C.ar    1  UNL1        0.0207
     13 C          60.5805   87.9800   10.0899 C.ar    1  UNL1        0.1072
     14 C          62.0263   87.7599   10.4231 C.ar    1  UNL1        0.0726
     15 C          62.8321   86.7627    9.6445 C.ar    1  UNL1        0.0018
     16 N          59.7747   88.9772   10.8685 N.ar    1  UNL1       -0.1477
     17 N          59.5747   90.4203   10.5117 N.ar    1  UNL1       -0.1447
     18 C          58.7039   91.0415   11.5633 C.ar    1  UNL1        0.1446
     19 C          58.3658   89.9822   12.5701 C.ar    1  UNL1        0.1446
     20 N          59.0276   88.7065   12.1407 N.ar    1  UNL1       -0.1447
     21 C          63.9468   90.0916   13.7586 C.3     1  UNL1        0.0488
     22 C          65.2456   90.8382   13.6827 C.ar    1  UNL1       -0.0189
     23 C          66.1295   90.9301   14.8912 C.ar    1  UNL1       -0.0041
     24 C          67.4283   91.6767   14.8154 C.ar    1  UNL1        0.0012
     25 C          67.8432   92.3313   13.5311 C.ar    1  UNL1        0.0191
     26 C          66.9593   92.2394   12.3227 C.ar    1  UNL1        0.0825
     27 C          65.6606   91.4928   12.3985 C.ar    1  UNL1        0.0149
     28 N          67.3743   92.8940   11.0384 N.ar    1  UNL1       -0.2282
     29 C          68.0642   92.2216    9.8887 C.ar    1  UNL1        0.1020
     30 C          68.2885   93.2480    8.8181 C.ar    1  UNL1        0.0431
     31 C          67.7371   94.5548    9.3061 C.ar    1  UNL1        0.1221
     32 N          67.1720   94.3361   10.6784 N.ar    1  UNL1       -0.1635
@<TRIPOS>BOND
     1     9    10    1
     2    10    11   ar
     3    11    12   ar
     4    12    13   ar
     5    13    16    1
     6    16    17   ar
     7    17    18   ar
     8    18    19   ar
     9    19    20   ar
    10    13    14   ar
    11    14     1    1
    12     1     2    2
    13     1     3   am
    14     3     4    1
    15     4     5    1
    16     5     6    1
    17     6     7    1
    18     7     8    1
    19     8    21    1
    20    21    22    1
    21    22    23   ar
    22    23    24   ar
    23    24    25   ar
    24    25    26   ar
    25    26    28    1
    26    28    29   ar
    27    29    30   ar
    28    30    31   ar
    29    31    32   ar
    30    26    27   ar
    31    14    15   ar
    32    15    10   ar
    33    20    16   ar
    34     8     3    1
    35    27    22   ar
    36    32    28   ar
@<TRIPOS>MOLECULE
*****
 32 36 0 0 0
SMALL
GASTEIGER

@<TRIPOS>ATOM
      1 C          63.3594   86.9903   13.1160 C.2     1  UNL1        0.2506
      2 O          63.8484   87.6307   14.3812 O.2     1  UNL1       -0.2699
      3 N          62.8253   87.8416   12.0024 N.am    1  UNL1       -0.2723
      4 C          62.3363   87.2012   10.7372 C.3     1  UNL1        0.1257
      5 C          61.8021   88.0526    9.6236 C.3     1  UNL1        0.1637
      6 O          61.7570   89.5442    9.7753 O.3     1  UNL1       -0.3502
      7 C          62.2460   90.1845   11.0406 C.3     1  UNL1        0.1622
      8 C          62.7801   89.3333   12.1541 C.3     1  UNL1        0.1096
      9 C          63.9574   82.7879   10.1189 C.3     1  UNL1        0.0310
     10 C          63.7036   83.3975   11.4658 C.ar    1  UNL1       -0.0216
     11 C          63.4949   82.5155   12.6609 C.ar    1  UNL1       -0.0026
     12 C          63.2411   83.1250   14.0078 C.ar    1  UNL1        0.0207
     13 C          63.1959   84.6166   14.1595 C.ar    1  UNL1        0.1072
     14 C          63.4046   85.4986   12.9643 C.ar    1  UNL1        0.0726
     15 C          63.6584   84.8891   11.6175 C.ar    1  UNL1        0.0018
     16 N          62.9421   85.2262   15.5063 N.ar    1  UNL1       -0.1477
     17 N          61.5980   85.4536   16.1320 N.ar    1  UNL1       -0.1447
     18 C          61.8130   86.0833   17.4764 C.ar    1  UNL1        0.1446
     19 C          63.2901   86.2451   17.6815 C.ar    1  UNL1        0.1446
     20 N          63.9879   85.7154   16.4639 N.ar    1  UNL1       -0.1447
     21 C          63.2691   89.9736   13.4193 C.3     1  UNL1        0.0488
     22 C          64.5464   90.7600   13.4168 C.ar    1  UNL1       -0.0189
     23 C          65.4932   90.6564   14.5757 C.ar    1  UNL1       -0.0041
     24 C          66.7706   91.4428   14.5732 C.ar    1  UNL1        0.0012
     25 C          67.1011   92.3328   13.4119 C.ar    1  UNL1        0.0191
     26 C          66.1543   92.4363   12.2530 C.ar    1  UNL1        0.0825
     27 C          64.8770   91.6499   12.2555 C.ar    1  UNL1        0.0149
     28 N          66.4849   93.3263   11.0916 N.ar    1  UNL1       -0.2282
     29 C          65.7655   94.5872   10.7143 C.ar    1  UNL1        0.1020
     30 C          66.4289   95.1518    9.4932 C.ar    1  UNL1        0.0431
     31 C          67.5584   94.2398    9.1158 C.ar    1  UNL1        0.1221
     32 N          67.5930   93.1115   10.1037 N.ar    1  UNL1       -0.1635
@<TRIPOS>BOND
     1     9    10    1
     2    10    11   ar
     3    11    12   ar
     4    12    13   ar
     5    13    16    1
     6    16    17   ar
     7    17    18   ar
     8    18    19   ar
     9    19    20   ar
    10    13    14   ar
    11    14     1    1
    12     1     2    2
    13     1     3   am
    14     3     4    1
    15     4     5    1
    16     5     6    1
    17     6     7    1
    18     7     8    1
    19     8    21    1
    20    21    22    1
    21    22    23   ar
    22    23    24   ar
    23    24    25   ar
    24    25    26   ar
    25    26    28    1
    26    28    29   ar
    27    29    30   ar
    28    30    31   ar
    29    31    32   ar
    30    26    27   ar
    31    14    15   ar
    32    15    10   ar
    33    20    16   ar
    34     8     3    1
    35    27    22   ar
    36    32    28   ar
@<TRIPOS>MOLECULE
*****
 32 36 0 0 0
SMALL
GASTEIGER

@<TRIPOS>ATOM
      1 C          63.4153   87.9866   13.2119 C.2     1  UNL1        0.2506
      2 O          63.6512   89.0871   12.2203 O.2     1  UNL1       -0.2699
      3 N          63.3559   88.2981   14.6780 N.am    1  UNL1       -0.2723
      4 C          63.1200   87.1976   15.6696 C.3     1  UNL1        0.1257
      5 C          63.0605   87.5092   17.1357 C.3     1  UNL1        0.1637
      6 O          63.2370   88.9211   17.6102 O.3     1  UNL1       -0.3502
      7 C          63.4729   90.0216   16.6186 C.3     1  UNL1        0.1622
      8 C          63.5324   89.7101   15.1525 C.3     1  UNL1        0.1096
      9 C          64.5503   82.9313   13.6074 C.3     1  UNL1        0.0310
     10 C          63.8064   84.0470   12.9352 C.ar    1  UNL1       -0.0216
     11 C          62.8860   83.7506   11.7885 C.ar    1  UNL1       -0.0026
     12 C          62.1420   84.8662   11.1162 C.ar    1  UNL1        0.0207
     13 C          62.3184   86.2782   11.5907 C.ar    1  UNL1        0.1072
     14 C          63.2388   86.5745   12.7374 C.ar    1  UNL1        0.0726
     15 C          63.9828   85.4589   13.4096 C.ar    1  UNL1        0.0018
     16 N          61.5745   87.3938   10.9185 N.ar    1  UNL1       -0.1477
     17 N          60.4027   88.1393   11.4851 N.ar    1  UNL1       -0.1447
     18 C          59.9756   89.1661   10.4784 C.ar    1  UNL1        0.1446
     19 C          60.8835   89.0551    9.2895 C.ar    1  UNL1        0.1446
     20 N          61.8717   87.9598    9.5615 N.ar    1  UNL1       -0.1447
     21 C          63.7683   90.8106   14.1609 C.3     1  UNL1        0.0488
     22 C          65.1585   91.3216   13.9243 C.ar    1  UNL1       -0.0189
     23 C          66.2011   91.1817   14.9936 C.ar    1  UNL1       -0.0041
     24 C          67.5914   91.6928   14.7570 C.ar    1  UNL1        0.0012
     25 C          67.9391   92.3437   13.4510 C.ar    1  UNL1        0.0191
     26 C          66.8964   92.4836   12.3817 C.ar    1  UNL1        0.0825
     27 C          65.5062   91.9725   12.6183 C.ar    1  UNL1        0.0149
     28 N          67.2441   93.1345   11.0758 N.ar    1  UNL1       -0.2282
     29 C          67.8447   92.4519    9.8827 C.ar    1  UNL1        0.1020
     30 C          68.0240   93.4778    8.8032 C.ar    1  UNL1        0.0431
     31 C          67.5342   94.7945    9.3291 C.ar    1  UNL1        0.1221
     32 N          67.0522   94.5823   10.7336 N.ar    1  UNL1       -0.1635
@<TRIPOS>BOND
     1     9    10    1
     2    10    11   ar
     3    11    12   ar
     4    12    13   ar
     5    13    16    1
     6    16    17   ar
     7    17    18   ar
     8    18    19   ar
     9    19    20   ar
    10    13    14   ar
    11    14     1    1
    12     1     2    2
    13     1     3   am
    14     3     4    1
    15     4     5    1
    16     5     6    1
    17     6     7    1
    18     7     8    1
    19     8    21    1
    20    21    22    1
    21    22    23   ar
    22    23    24   ar
    23    24    25   ar
    24    25    26   ar
    25    26    28    1
    26    28    29   ar
    27    29    30   ar
    28    30    31   ar
    29    31    32   ar
    30    26    27   ar
    31    14    15   ar
    32    15    10   ar
    33    20    16   ar
    34     8     3    1
    35    27    22   ar
    36    32    28   ar
@<TRIPOS>MOLECULE
*****
 32 36 0 0 0
SMALL
GASTEIGER

@<TRIPOS>ATOM
      1 C          62.8338   88.9753   11.9559 C.2     1  UNL1        0.2506
      2 O          62.9067   87.7234   12.7789 O.2     1  UNL1       -0.2699
      3 N          61.8688   89.0651   10.8110 N.am    1  UNL1       -0.2723
      4 C          61.7959   90.3169    9.9880 C.3     1  UNL1        0.1257
      5 C          60.8308   90.4067    8.8431 C.3     1  UNL1        0.1637
      6 O          59.9387   89.2445    8.5213 O.3     1  UNL1       -0.3502
      7 C          60.0116   87.9926    9.3444 C.3     1  UNL1        0.1622
      8 C          60.9766   87.9029   10.4892 C.3     1  UNL1        0.1096
      9 C          65.3920   93.2381   10.4447 C.3     1  UNL1        0.0310
     10 C          65.0050   92.2689   11.5221 C.ar    1  UNL1       -0.0216
     11 C          65.5101   92.4617   12.9212 C.ar    1  UNL1       -0.0026
     12 C          65.1231   91.4925   13.9986 C.ar    1  UNL1        0.0207
     13 C          64.2310   90.3304   13.6768 C.ar    1  UNL1        0.1072
     14 C          63.7259   90.1375   12.2777 C.ar    1  UNL1        0.0726
     15 C          64.1129   91.1067   11.2003 C.ar    1  UNL1        0.0018
     16 N          63.8439   89.3611   14.7542 N.ar    1  UNL1       -0.1477
     17 N          64.3567   87.9596   14.9052 N.ar    1  UNL1       -0.1447
     18 C          63.7059   87.3555   16.1141 C.ar    1  UNL1        0.1446
     19 C          62.7908   88.3836   16.7103 C.ar    1  UNL1        0.1446
     20 N          62.8761   89.6232   15.8699 N.ar    1  UNL1       -0.1447
     21 C          61.0495   86.6510   11.3123 C.3     1  UNL1        0.0488
     22 C          61.9450   85.5251   10.8874 C.ar    1  UNL1       -0.0189
     23 C          62.6330   85.5759    9.5555 C.ar    1  UNL1       -0.0041
     24 C          63.5285   84.4500    9.1305 C.ar    1  UNL1        0.0012
     25 C          63.7360   83.2734   10.0375 C.ar    1  UNL1        0.0191
     26 C          63.0480   83.2228   11.3695 C.ar    1  UNL1        0.0825
     27 C          62.1525   84.3486   11.7944 C.ar    1  UNL1        0.0149
     28 N          63.2555   82.0462   12.2766 N.ar    1  UNL1       -0.2282
     29 C          62.4596   80.7748   12.2675 C.ar    1  UNL1        0.1020
     30 C          63.0075   79.8773   13.3372 C.ar    1  UNL1        0.0431
     31 C          64.1420   80.5941   14.0075 C.ar    1  UNL1        0.1221
     32 N          64.2953   81.9346   13.3520 N.ar    1  UNL1       -0.1635
@<TRIPOS>BOND
     1     9    10    1
     2    10    11   ar
     3    11    12   ar
     4    12    13   ar
     5    13    16    1
     6    16    17   ar
     7    17    18   ar
     8    18    19   ar
     9    19    20   ar
    10    13    14   ar
    11    14     1    1
    12     1     2    2
    13     1     3   am
    14     3     4    1
    15     4     5    1
    16     5     6    1
    17     6     7    1
    18     7     8    1
    19     8    21    1
    20    21    22    1
    21    22    23   ar
    22    23    24   ar
    23    24    25   ar
    24    25    26   ar
    25    26    28    1
    26    28    29   ar
    27    29    30   ar
    28    30    31   ar
    29    31    32   ar
    30    26    27   ar
    31    14    15   ar
    32    15    10   ar
    33    20    16   ar
    34     8     3    1
    35    27    22   ar
    36    32    28   ar
