@<TRIPOS>MOLECULE
*****
 27 29 0 0 0
SMALL
GASTEIGER

@<TRIPOS>ATOM
      1 C          63.1798   89.3981   12.1664 C.ar    1  UNL1        0.0900
      2 C          63.7263   90.6643   12.7564 C.ar    1  UNL1        0.0372
      3 C          64.5228   90.6172   14.0264 C.ar    1  UNL1        0.1405
      4 F          65.0693   91.8835   14.6164 F       1  UNL1       -0.2042
      5 C          64.7730   89.3039   14.7067 C.ar    1  UNL1        0.0328
      6 C          64.2265   88.0377   14.1167 C.ar    1  UNL1        0.0400
      7 C          64.3100   86.6067   14.5588 C.ar    1  UNL1        0.0406
      8 C          63.5650   85.7695   13.5619 C.ar    1  UNL1        0.1453
      9 O          63.0211   86.6829   12.5037 O.2     1  UNL1       -0.4533
     10 C          63.4300   88.0848   12.8466 C.ar    1  UNL1        0.1497
     11 C          63.3939   84.2801   13.6140 C.ar    1  UNL1        0.0346
     12 C          64.2730   83.3947   12.7814 C.ar    1  UNL1        0.0039
     13 C          64.1019   81.9053   12.8336 C.ar    1  UNL1        0.0115
     14 C          63.0517   81.3015   13.7182 C.ar    1  UNL1        0.0577
     15 CL         62.8806   79.8122   13.7703 Cl      1  UNL1       -0.0822
     16 C          62.1726   82.1870   14.5507 C.ar    1  UNL1        0.0115
     17 C          62.3438   83.6763   14.4986 C.ar    1  UNL1        0.0039
     18 N          61.2892   88.4466   10.6597 N.am    1  UNL1       -0.2994
     19 C          62.3832   89.4451   10.8963 C.2     1  UNL1        0.2491
     20 O          62.6807   90.4908    9.8627 O.2     1  UNL1       -0.2700
     21 H          61.0939   87.7603   11.3380 H       1  UNL1        0.1500
     22 C          61.1282   87.2104    8.9434 C.3     1  UNL1        0.0254
     23 C          60.4926   88.4938    9.3895 C.3     1  UNL1        0.0890
     24 C          59.8572   89.7771    9.8355 C.3     1  UNL1        0.0254
     25 C          59.6962   88.5409    8.1193 C.2     1  UNL1        0.0663
     26 O          58.7320   87.4378    7.7973 O.co2   1  UNL1       -0.5476
     27 O          59.8639   89.6909    7.1711 O.co2   1  UNL1       -0.5476
@<TRIPOS>UNITY_ATOM_ATTR
26 1
charge -1
@<TRIPOS>BOND
     1    22    23    1
     2    23    24    1
     3    23    18    1
     4    18    19   am
     5    19    20    2
     6    19     1    1
     7     1     2   ar
     8     2     3   ar
     9     3     4    1
    10     3     5   ar
    11     5     6   ar
    12     6     7   ar
    13     7     8   ar
    14     8    11    1
    15    11    12   ar
    16    12    13   ar
    17    13    14   ar
    18    14    15    1
    19    14    16   ar
    20    16    17   ar
    21     8     9   ar
    22     9    10   ar
    23    23    25    1
    24    25    26   ar
    25    25    27   ar
    26    10     1   ar
    27    10     6   ar
    28    17    11   ar
    29    18    21    1
@<TRIPOS>MOLECULE
*****
 27 29 0 0 0
SMALL
GASTEIGER

@<TRIPOS>ATOM
      1 C          61.9008   86.4499   10.9289 C.ar    1  UNL1        0.0900
      2 C          61.0043   86.3473    9.7307 C.ar    1  UNL1        0.0372
      3 C          60.6047   87.5856    8.9847 C.ar    1  UNL1        0.1405
      4 F          59.7081   87.4829    7.7865 F       1  UNL1       -0.2042
      5 C          61.1017   88.9268    9.4368 C.ar    1  UNL1        0.0328
      6 C          61.9983   89.0295   10.6349 C.ar    1  UNL1        0.0400
      7 C          62.6400   90.2050   11.3105 C.ar    1  UNL1        0.0406
      8 C          63.4362   89.6930   12.4741 C.ar    1  UNL1        0.1453
      9 O          63.2865   88.2011   12.5177 O.2     1  UNL1       -0.4533
     10 C          62.3978   87.7910   11.3810 C.ar    1  UNL1        0.1497
     11 C          64.2408   90.5266   13.4269 C.ar    1  UNL1        0.0346
     12 C          63.8975   90.5385   14.8870 C.ar    1  UNL1        0.0039
     13 C          64.7022   91.3721   15.8398 C.ar    1  UNL1        0.0115
     14 C          65.8500   92.1937   15.3325 C.ar    1  UNL1        0.0577
     15 CL         66.6546   93.0273   16.2853 Cl      1  UNL1       -0.0822
     16 C          66.1933   92.1818   13.8723 C.ar    1  UNL1        0.0115
     17 C          65.3886   91.3482   12.9196 C.ar    1  UNL1        0.0039
     18 N          62.7737   85.3111   13.0948 N.am    1  UNL1       -0.2994
     19 C          62.3004   85.2115   11.6750 C.2     1  UNL1        0.2491
     20 O          62.2266   83.8733   11.0011 O.2     1  UNL1       -0.2700
     21 H          62.8221   86.1893   13.5371 H       1  UNL1        0.1500
     22 C          64.4565   84.0200   13.0660 C.3     1  UNL1        0.0254
     23 C          63.1732   84.0726   13.8409 C.3     1  UNL1        0.0890
     24 C          61.8900   84.1252   14.6156 C.3     1  UNL1        0.0254
     25 C          63.5728   82.8341   14.5868 C.2     1  UNL1        0.0663
     26 O          64.5774   82.9188   15.6975 O.co2   1  UNL1       -0.5476
     27 O          62.9679   81.5109   14.2220 O.co2   1  UNL1       -0.5476
@<TRIPOS>UNITY_ATOM_ATTR
26 1
charge -1
@<TRIPOS>BOND
     1    22    23    1
     2    23    24    1
     3    23    18    1
     4    18    19   am
     5    19    20    2
     6    19     1    1
     7     1     2   ar
     8     2     3   ar
     9     3     4    1
    10     3     5   ar
    11     5     6   ar
    12     6     7   ar
    13     7     8   ar
    14     8    11    1
    15    11    12   ar
    16    12    13   ar
    17    13    14   ar
    18    14    15    1
    19    14    16   ar
    20    16    17   ar
    21     8     9   ar
    22     9    10   ar
    23    23    25    1
    24    25    26   ar
    25    25    27   ar
    26    10     1   ar
    27    10     6   ar
    28    17    11   ar
    29    18    21    1
@<TRIPOS>MOLECULE
*****
 27 29 0 0 0
SMALL
GASTEIGER

@<TRIPOS>ATOM
      1 C          61.8863   86.4544   10.9272 C.ar    1  UNL1        0.0900
      2 C          60.9861   86.3532    9.7316 C.ar    1  UNL1        0.0372
      3 C          60.5851   87.5924    8.9878 C.ar    1  UNL1        0.1405
      4 F          59.6848   87.4912    7.7921 F       1  UNL1       -0.2042
      5 C          61.0842   88.9329    9.4394 C.ar    1  UNL1        0.0328
      6 C          61.9844   89.0341   10.6349 C.ar    1  UNL1        0.0400
      7 C          62.6289   90.2086   11.3095 C.ar    1  UNL1        0.0406
      8 C          63.4282   89.6953   12.4703 C.ar    1  UNL1        0.1453
      9 O          63.2778   88.2034   12.5132 O.2     1  UNL1       -0.4533
     10 C          62.3855   87.7948   11.3788 C.ar    1  UNL1        0.1497
     11 C          64.2362   90.5276   13.4214 C.ar    1  UNL1        0.0346
     12 C          65.3783   91.3547   12.9101 C.ar    1  UNL1        0.0039
     13 C          66.1862   92.1871   13.8613 C.ar    1  UNL1        0.0115
     14 C          65.8520   92.1922   15.3236 C.ar    1  UNL1        0.0577
     15 CL         66.6600   93.0245   16.2746 Cl      1  UNL1       -0.0822
     16 C          64.7099   91.3651   15.8348 C.ar    1  UNL1        0.0115
     17 C          63.9020   90.5328   14.8837 C.ar    1  UNL1        0.0039
     18 N          62.7613   85.3129   13.0908 N.am    1  UNL1       -0.2994
     19 C          62.2873   85.2151   11.6711 C.2     1  UNL1        0.2491
     20 O          62.2144   83.8779   10.9951 O.2     1  UNL1       -0.2700
     21 H          62.8091   86.1904   13.5345 H       1  UNL1        0.1500
     22 C          61.8804   84.1253   14.6118 C.3     1  UNL1        0.0254
     23 C          63.1623   84.0735   13.8347 C.3     1  UNL1        0.0890
     24 C          64.4441   84.0218   13.0575 C.3     1  UNL1        0.0254
     25 C          63.5632   82.8342   14.5785 C.2     1  UNL1        0.0663
     26 O          62.9553   81.5118   14.2154 O.co2   1  UNL1       -0.5476
     27 O          64.5721   82.9173   15.6854 O.co2   1  UNL1       -0.5476
@<TRIPOS>UNITY_ATOM_ATTR
26 1
charge -1
@<TRIPOS>BOND
     1    22    23    1
     2    23    24    1
     3    23    18    1
     4    18    19   am
     5    19    20    2
     6    19     1    1
     7     1     2   ar
     8     2     3   ar
     9     3     4    1
    10     3     5   ar
    11     5     6   ar
    12     6     7   ar
    13     7     8   ar
    14     8    11    1
    15    11    12   ar
    16    12    13   ar
    17    13    14   ar
    18    14    15    1
    19    14    16   ar
    20    16    17   ar
    21     8     9   ar
    22     9    10   ar
    23    23    25    1
    24    25    26   ar
    25    25    27   ar
    26    10     1   ar
    27    10     6   ar
    28    17    11   ar
    29    18    21    1
@<TRIPOS>MOLECULE
*****
 27 29 0 0 0
SMALL
GASTEIGER

@<TRIPOS>ATOM
      1 C          63.1308   90.0595   12.7251 C.ar    1  UNL1        0.0900
      2 C          62.9992   89.4793   14.1021 C.ar    1  UNL1        0.0372
      3 C          63.8420   90.0104   15.2234 C.ar    1  UNL1        0.1405
      4 F          63.7104   89.4302   16.6004 F       1  UNL1       -0.2042
      5 C          64.8164   91.1219   14.9679 C.ar    1  UNL1        0.0328
      6 C          64.9480   91.7021   13.5910 C.ar    1  UNL1        0.0400
      7 C          65.8158   92.7951   13.0411 C.ar    1  UNL1        0.0406
      8 C          65.5093   92.9394   11.5799 C.ar    1  UNL1        0.1453
      9 O          64.4521   91.9357   11.2266 O.2     1  UNL1       -0.4533
     10 C          64.1052   91.1709   12.4696 C.ar    1  UNL1        0.1497
     11 C          66.1478   93.9161   10.6374 C.ar    1  UNL1        0.0346
     12 C          65.6757   95.3393   10.5986 C.ar    1  UNL1        0.0039
     13 C          66.3143   96.3159    9.6560 C.ar    1  UNL1        0.0115
     14 C          67.4250   95.8694    8.7523 C.ar    1  UNL1        0.0577
     15 CL         68.0636   96.8461    7.8097 Cl      1  UNL1       -0.0822
     16 C          67.8972   94.4462    8.7910 C.ar    1  UNL1        0.0115
     17 C          67.2586   93.4696    9.7336 C.ar    1  UNL1        0.0039
     18 N          62.1214   88.0482   11.4268 N.am    1  UNL1       -0.2994
     19 C          62.2880   89.5284   11.6037 C.2     1  UNL1        0.2491
     20 O          61.6117   90.4774   10.6592 O.2     1  UNL1       -0.2700
     21 H          62.5653   87.4253   12.0467 H       1  UNL1        0.1500
     22 C          60.0390   87.8184   11.0944 C.3     1  UNL1        0.0254
     23 C          61.2786   87.5171   10.3053 C.3     1  UNL1        0.0890
     24 C          62.5181   87.2158    9.5163 C.3     1  UNL1        0.0254
     25 C          60.4357   86.9860    9.1839 C.2     1  UNL1        0.0663
     26 O          61.0040   85.9758    8.2319 O.co2   1  UNL1       -0.5476
     27 O          59.0244   87.4653    9.0147 O.co2   1  UNL1       -0.5476
@<TRIPOS>UNITY_ATOM_ATTR
26 1
charge -1
@<TRIPOS>BOND
     1    22    23    1
     2    23    24    1
     3    23    18    1
     4    18    19   am
     5    19    20    2
     6    19     1    1
     7     1     2   ar
     8     2     3   ar
     9     3     4    1
    10     3     5   ar
    11     5     6   ar
    12     6     7   ar
    13     7     8   ar
    14     8    11    1
    15    11    12   ar
    16    12    13   ar
    17    13    14   ar
    18    14    15    1
    19    14    16   ar
    20    16    17   ar
    21     8     9   ar
    22     9    10   ar
    23    23    25    1
    24    25    26   ar
    25    25    27   ar
    26    10     1   ar
    27    10     6   ar
    28    17    11   ar
    29    18    21    1
@<TRIPOS>MOLECULE
*****
 27 29 0 0 0
SMALL
GASTEIGER

@<TRIPOS>ATOM
      1 C          63.0832   89.1747   12.0783 C.ar    1  UNL1        0.0900
      2 C          62.5427   90.1832   11.1084 C.ar    1  UNL1        0.0372
      3 C          61.6707   89.7383    9.9719 C.ar    1  UNL1        0.1405
      4 F          61.1302   90.7469    9.0019 F       1  UNL1       -0.2042
      5 C          61.3391   88.2849    9.8053 C.ar    1  UNL1        0.0328
      6 C          61.8796   87.2764   10.7753 C.ar    1  UNL1        0.0400
      7 C          61.7249   85.7871   10.8652 C.ar    1  UNL1        0.0406
      8 C          62.5013   85.3116   12.0573 C.ar    1  UNL1        0.1453
      9 O          63.1359   86.5070   12.7041 O.2     1  UNL1       -0.4533
     10 C          62.7517   87.7213   11.9118 C.ar    1  UNL1        0.1497
     11 C          62.6219   83.8903   12.5212 C.ar    1  UNL1        0.0346
     12 C          62.5004   83.5646   13.9803 C.ar    1  UNL1        0.0039
     13 C          62.6211   82.1432   14.4441 C.ar    1  UNL1        0.0115
     14 C          62.8633   81.0475   13.4488 C.ar    1  UNL1        0.0577
     15 CL         62.9839   79.6261   13.9127 Cl      1  UNL1       -0.0822
     16 C          62.9848   81.3731   11.9896 C.ar    1  UNL1        0.0115
     17 C          62.8642   82.7945   11.5259 C.ar    1  UNL1        0.0039
     18 N          64.3245   91.0667   13.3549 N.am    1  UNL1       -0.2994
     19 C          63.9553   89.6196   13.2148 C.2     1  UNL1        0.2491
     20 O          64.4581   88.6174   14.2113 O.2     1  UNL1       -0.2700
     21 H          63.9945   91.7245   12.7009 H       1  UNL1        0.1500
     22 C          64.0843   91.2259   15.4565 C.3     1  UNL1        0.0254
     23 C          65.1966   91.5115   14.4914 C.3     1  UNL1        0.0890
     24 C          66.3087   91.7971   13.5264 C.3     1  UNL1        0.0254
     25 C          66.0685   91.9564   15.6280 C.2     1  UNL1        0.0663
     26 O          67.5533   91.7553   15.5574 O.co2   1  UNL1       -0.5476
     27 O          65.4557   92.6022   16.8351 O.co2   1  UNL1       -0.5476
@<TRIPOS>UNITY_ATOM_ATTR
26 1
charge -1
@<TRIPOS>BOND
     1    22    23    1
     2    23    24    1
     3    23    18    1
     4    18    19   am
     5    19    20    2
     6    19     1    1
     7     1     2   ar
     8     2     3   ar
     9     3     4    1
    10     3     5   ar
    11     5     6   ar
    12     6     7   ar
    13     7     8   ar
    14     8    11    1
    15    11    12   ar
    16    12    13   ar
    17    13    14   ar
    18    14    15    1
    19    14    16   ar
    20    16    17   ar
    21     8     9   ar
    22     9    10   ar
    23    23    25    1
    24    25    26   ar
    25    25    27   ar
    26    10     1   ar
    27    10     6   ar
    28    17    11   ar
    29    18    21    1
@<TRIPOS>MOLECULE
*****
 27 29 0 0 0
SMALL
GASTEIGER

@<TRIPOS>ATOM
      1 C          61.2781   89.1291   10.1014 C.ar    1  UNL1        0.0900
      2 C          60.4899   89.6633    8.9424 C.ar    1  UNL1        0.0372
      3 C          59.8900   88.7182    7.9441 C.ar    1  UNL1        0.1405
      4 F          59.1018   89.2525    6.7850 F       1  UNL1       -0.2042
      5 C          60.0783   87.2387    8.1046 C.ar    1  UNL1        0.0328
      6 C          60.8665   86.7044    9.2636 C.ar    1  UNL1        0.0400
      7 C          61.2173   85.3066    9.6797 C.ar    1  UNL1        0.0406
      8 C          62.0340   85.3880   10.9352 C.ar    1  UNL1        0.1453
      9 O          62.1880   86.8360   11.2951 O.2     1  UNL1       -0.4533
     10 C          61.4664   87.6496   10.2620 C.ar    1  UNL1        0.1497
     11 C          62.5978   84.2254   11.6971 C.ar    1  UNL1        0.0346
     12 C          63.0923   83.0153   10.9614 C.ar    1  UNL1        0.0039
     13 C          63.6561   81.8527   11.7234 C.ar    1  UNL1        0.0115
     14 C          63.7254   81.9002   13.2210 C.ar    1  UNL1        0.0577
     15 CL         64.2892   80.7376   13.9829 Cl      1  UNL1       -0.0822
     16 C          63.2309   83.1102   13.9568 C.ar    1  UNL1        0.0115
     17 C          62.6671   84.2728   13.1948 C.ar    1  UNL1        0.0039
     18 N          63.2821   89.8627   11.5832 N.am    1  UNL1       -0.2994
     19 C          61.8780   90.0743   11.0998 C.2     1  UNL1        0.2491
     20 O          61.0737   91.2311   11.6147 O.2     1  UNL1       -0.2700
     21 H          63.8100   89.1035   11.2453 H       1  UNL1        0.1500
     22 C          64.3196   91.7092   11.4653 C.3     1  UNL1        0.0254
     23 C          63.8819   90.8080   12.5816 C.3     1  UNL1        0.0890
     24 C          63.4443   89.9068   13.6979 C.3     1  UNL1        0.0254
     25 C          64.4818   91.7533   13.5799 C.2     1  UNL1        0.0663
     26 O          64.1340   91.6287   15.0337 O.co2   1  UNL1       -0.5476
     27 O          65.4293   92.8230   13.1244 O.co2   1  UNL1       -0.5476
@<TRIPOS>UNITY_ATOM_ATTR
26 1
charge -1
@<TRIPOS>BOND
     1    22    23    1
     2    23    24    1
     3    23    18    1
     4    18    19   am
     5    19    20    2
     6    19     1    1
     7     1     2   ar
     8     2     3   ar
     9     3     4    1
    10     3     5   ar
    11     5     6   ar
    12     6     7   ar
    13     7     8   ar
    14     8    11    1
    15    11    12   ar
    16    12    13   ar
    17    13    14   ar
    18    14    15    1
    19    14    16   ar
    20    16    17   ar
    21     8     9   ar
    22     9    10   ar
    23    23    25    1
    24    25    26   ar
    25    25    27   ar
    26    10     1   ar
    27    10     6   ar
    28    17    11   ar
    29    18    21    1
@<TRIPOS>MOLECULE
*****
 27 29 0 0 0
SMALL
GASTEIGER

@<TRIPOS>ATOM
      1 C          62.9733   87.8421   12.1667 C.ar    1  UNL1        0.0900
      2 C          63.4851   88.8806   13.1204 C.ar    1  UNL1        0.0372
      3 C          64.2195   88.4635   14.3600 C.ar    1  UNL1        0.1405
      4 F          64.7313   89.5020   15.3138 F       1  UNL1       -0.2042
      5 C          64.4420   87.0078   14.6459 C.ar    1  UNL1        0.0328
      6 C          63.9302   85.9694   13.6922 C.ar    1  UNL1        0.0400
      7 C          63.9983   84.4710   13.7085 C.ar    1  UNL1        0.0406
      8 C          63.3060   83.9622   12.4790 C.ar    1  UNL1        0.1453
      9 O          62.8100   85.1460   11.7028 O.2     1  UNL1       -0.4533
     10 C          63.1958   86.3866   12.4526 C.ar    1  UNL1        0.1497
     11 C          63.1390   82.5222   12.0934 C.ar    1  UNL1        0.0346
     12 C          62.6863   81.5202   13.1137 C.ar    1  UNL1        0.0039
     13 C          62.5193   80.0803   12.7280 C.ar    1  UNL1        0.0115
     14 C          62.8050   79.6423   11.3221 C.ar    1  UNL1        0.0577
     15 CL         62.6380   78.2024   10.9364 Cl      1  UNL1       -0.0822
     16 C          63.2577   80.6444   10.3018 C.ar    1  UNL1        0.0115
     17 C          63.4247   82.0843   10.6875 C.ar    1  UNL1        0.0039
     18 N          61.0376   87.4855   10.4708 N.am    1  UNL1       -0.2994
     19 C          62.2389   88.2593   10.9271 C.2     1  UNL1        0.2491
     20 O          62.7058   89.4503   10.1437 O.2     1  UNL1       -0.2700
     21 H          60.7311   86.7038   10.9849 H       1  UNL1        0.1500
     22 C          60.7123   86.6256    8.5591 C.3     1  UNL1        0.0254
     23 C          60.3033   87.9028    9.2311 C.3     1  UNL1        0.0890
     24 C          59.8942   89.1798    9.9032 C.3     1  UNL1        0.0254
     25 C          59.5690   88.3199    7.9915 C.2     1  UNL1        0.0663
     26 O          58.5489   87.4055    7.3804 O.co2   1  UNL1       -0.5476
     27 O          59.8547   89.6515    7.3629 O.co2   1  UNL1       -0.5476
@<TRIPOS>UNITY_ATOM_ATTR
26 1
charge -1
@<TRIPOS>BOND
     1    22    23    1
     2    23    24    1
     3    23    18    1
     4    18    19   am
     5    19    20    2
     6    19     1    1
     7     1     2   ar
     8     2     3   ar
     9     3     4    1
    10     3     5   ar
    11     5     6   ar
    12     6     7   ar
    13     7     8   ar
    14     8    11    1
    15    11    12   ar
    16    12    13   ar
    17    13    14   ar
    18    14    15    1
    19    14    16   ar
    20    16    17   ar
    21     8     9   ar
    22     9    10   ar
    23    23    25    1
    24    25    26   ar
    25    25    27   ar
    26    10     1   ar
    27    10     6   ar
    28    17    11   ar
    29    18    21    1
@<TRIPOS>MOLECULE
*****
 27 29 0 0 0
SMALL
GASTEIGER

@<TRIPOS>ATOM
      1 C          64.2542   90.6144   14.3705 C.ar    1  UNL1        0.0900
      2 C          65.2371   91.7210   14.6142 C.ar    1  UNL1        0.0372
      3 C          65.6849   92.5903   13.4769 C.ar    1  UNL1        0.1405
      4 F          66.6678   93.6970   13.7206 F       1  UNL1       -0.2042
      5 C          65.1498   92.3532   12.0957 C.ar    1  UNL1        0.0328
      6 C          64.1670   91.2466   11.8520 C.ar    1  UNL1        0.0400
      7 C          63.4719   90.7775   10.6083 C.ar    1  UNL1        0.0406
      8 C          62.5944   89.6181   10.9771 C.ar    1  UNL1        0.1453
      9 O          62.7472   89.3707   12.4487 O.2     1  UNL1       -0.4533
     10 C          63.7191   90.3772   12.9894 C.ar    1  UNL1        0.1497
     11 C          61.7180   88.8423   10.0390 C.ar    1  UNL1        0.0346
     12 C          60.6364   89.5425    9.2712 C.ar    1  UNL1        0.0039
     13 C          59.7600   88.7666    8.3331 C.ar    1  UNL1        0.0115
     14 C          59.9653   87.2905    8.1628 C.ar    1  UNL1        0.0577
     15 CL         59.0889   86.5147    7.2247 Cl      1  UNL1       -0.0822
     16 C          61.0469   86.5902    8.9307 C.ar    1  UNL1        0.0115
     17 C          61.9233   87.3662    9.8688 C.ar    1  UNL1        0.0039
     18 N          63.7074   88.2598   15.3228 N.am    1  UNL1       -0.2994
     19 C          63.8064   89.7450   15.5079 C.2     1  UNL1        0.2491
     20 O          63.4575   90.3609   16.8305 O.2     1  UNL1       -0.2700
     21 H          63.9363   87.8556   14.4548 H       1  UNL1        0.1500
     22 C          63.9451   86.2140   15.8309 C.3     1  UNL1        0.0254
     23 C          63.2595   87.3905   16.4602 C.3     1  UNL1        0.0890
     24 C          62.5741   88.5669   17.0895 C.3     1  UNL1        0.0254
     25 C          62.8118   86.5211   17.5976 C.2     1  UNL1        0.0663
     26 O          62.4115   85.0983   17.3416 O.co2   1  UNL1       -0.5476
     27 O          62.7643   87.0745   18.9909 O.co2   1  UNL1       -0.5476
@<TRIPOS>UNITY_ATOM_ATTR
26 1
charge -1
@<TRIPOS>BOND
     1    22    23    1
     2    23    24    1
     3    23    18    1
     4    18    19   am
     5    19    20    2
     6    19     1    1
     7     1     2   ar
     8     2     3   ar
     9     3     4    1
    10     3     5   ar
    11     5     6   ar
    12     6     7   ar
    13     7     8   ar
    14     8    11    1
    15    11    12   ar
    16    12    13   ar
    17    13    14   ar
    18    14    15    1
    19    14    16   ar
    20    16    17   ar
    21     8     9   ar
    22     9    10   ar
    23    23    25    1
    24    25    26   ar
    25    25    27   ar
    26    10     1   ar
    27    10     6   ar
    28    17    11   ar
    29    18    21    1
@<TRIPOS>MOLECULE
*****
 27 29 0 0 0
SMALL
GASTEIGER

@<TRIPOS>ATOM
      1 C          64.2013   88.5252   14.3361 C.ar    1  UNL1        0.0900
      2 C          65.0354   89.5363   15.0654 C.ar    1  UNL1        0.0372
      3 C          65.1720   90.9278   14.5224 C.ar    1  UNL1        0.1405
      4 F          66.0062   91.9390   15.2518 F       1  UNL1       -0.2042
      5 C          64.4744   91.3084   13.2501 C.ar    1  UNL1        0.0328
      6 C          63.6403   90.2972   12.5209 C.ar    1  UNL1        0.0400
      7 C          62.8415   90.3810   11.2541 C.ar    1  UNL1        0.0406
      8 C          62.2112   89.0412   11.0141 C.ar    1  UNL1        0.1453
      9 O          62.6205   88.1293   12.1326 O.2     1  UNL1       -0.4533
     10 C          63.5037   88.9056   13.0639 C.ar    1  UNL1        0.1497
     11 C          61.3269   88.6771    9.8585 C.ar    1  UNL1        0.0346
     12 C          60.5745   89.7467    9.1237 C.ar    1  UNL1        0.0039
     13 C          59.6901   89.3824    7.9681 C.ar    1  UNL1        0.0115
     14 C          59.5582   87.9488    7.5473 C.ar    1  UNL1        0.0577
     15 CL         58.6738   87.5846    6.3917 Cl      1  UNL1       -0.0822
     16 C          60.3106   86.8792    8.2821 C.ar    1  UNL1        0.0115
     17 C          61.1949   87.2434    9.4377 C.ar    1  UNL1        0.0039
     18 N          63.9582   85.9690   13.9397 N.am    1  UNL1       -0.2994
     19 C          64.0647   87.1336   14.8791 C.2     1  UNL1        0.2491
     20 O          64.0348   86.9065   16.3616 O.2     1  UNL1       -0.2700
     21 H          63.9778   86.1180   12.9667 H       1  UNL1        0.1500
     22 C          62.3279   84.7084   14.4425 C.3     1  UNL1        0.0254
     23 C          63.8216   84.5775   14.4827 C.3     1  UNL1        0.0890
     24 C          65.3152   84.4465   14.5230 C.3     1  UNL1        0.0254
     25 C          63.6850   83.1859   15.0258 C.2     1  UNL1        0.0663
     26 O          62.3536   82.4956   14.9936 O.co2   1  UNL1       -0.5476
     27 O          64.8797   82.4847   15.6011 O.co2   1  UNL1       -0.5476
@<TRIPOS>UNITY_ATOM_ATTR
26 1
charge -1
@<TRIPOS>BOND
     1    22    23    1
     2    23    24    1
     3    23    18    1
     4    18    19   am
     5    19    20    2
     6    19     1    1
     7     1     2   ar
     8     2     3   ar
     9     3     4    1
    10     3     5   ar
    11     5     6   ar
    12     6     7   ar
    13     7     8   ar
    14     8    11    1
    15    11    12   ar
    16    12    13   ar
    17    13    14   ar
    18    14    15    1
    19    14    16   ar
    20    16    17   ar
    21     8     9   ar
    22     9    10   ar
    23    23    25    1
    24    25    26   ar
    25    25    27   ar
    26    10     1   ar
    27    10     6   ar
    28    17    11   ar
    29    18    21    1
