@<TRIPOS>MOLECULE
*****
 46 50 0 0 0
SMALL
GASTEIGER

@<TRIPOS>ATOM
      1 C          60.6295   88.3824    9.2954 C.3     1  UNL1        0.0337
      2 C          59.6550   89.0293    8.3564 C.3     1  UNL1        0.0220
      3 C          58.8157   88.1827    7.4460 C.3     1  UNL1        0.0689
      4 N          58.9509   86.6891    7.4746 N.3     1  UNL1       -0.2970
      5 C          59.9254   86.0421    8.4136 C.3     1  UNL1        0.0780
      6 C          60.7647   86.8887    9.3240 C.3     1  UNL1        0.0964
      7 H          59.2129   86.3991    6.5324 H       1  UNL1        0.1233
      8 C          63.1474   90.9222   12.0266 C.ar    1  UNL1        0.1387
      9 C          61.9333   90.2222   12.5611 C.ar    1  UNL1        0.0366
     10 C          61.0940   89.3756   11.6507 C.ar    1  UNL1       -0.0012
     11 C          61.4688   89.2290   10.2058 C.ar    1  UNL1       -0.0217
     12 C          62.6830   89.9290    9.6711 C.ar    1  UNL1       -0.0012
     13 C          63.5223   90.7757   10.5815 C.ar    1  UNL1        0.0366
     14 O          63.9867   91.7688   12.9370 O.3     1  UNL1       -0.4714
     15 C          65.4149   92.0616   12.5838 C.3     1  UNL1        0.2525
     16 C          66.0277   93.3761   12.9664 C.3     1  UNL1        0.2525
     17 O          67.1740   93.9287   12.1722 O.3     1  UNL1       -0.4697
     18 C          66.1329   96.8495    7.0356 C.3     1  UNL1        0.0311
     19 C          66.3932   96.1193    8.3197 C.ar    1  UNL1       -0.0200
     20 C          66.9636   94.7323    8.2915 C.ar    1  UNL1        0.0103
     21 C          67.2238   94.0021    9.5757 C.ar    1  UNL1        0.0921
     22 CL         67.7942   92.6150    9.5474 Cl      1  UNL1       -0.0791
     23 C          66.9137   94.6589   10.8881 C.ar    1  UNL1        0.1596
     24 C          66.3433   96.0459   10.9163 C.ar    1  UNL1        0.0921
     25 CL         66.0332   96.7027   12.2287 Cl      1  UNL1       -0.0791
     26 C          66.0831   96.7761    9.6321 C.ar    1  UNL1        0.0103
     27 C          61.7392   86.2417   10.2630 C.2     1  UNL1        0.2270
     28 O          61.6934   86.5602   11.7281 O.2     1  UNL1       -0.2748
     29 N          62.7595   85.2762    9.7369 N.am    1  UNL1       -0.2770
     30 C          62.8053   84.9578    8.2718 C.3     1  UNL1        0.0758
     31 C          62.1113   84.5265    7.0139 C.3     1  UNL1        0.0215
     32 C          63.5786   84.8374    6.9922 C.3     1  UNL1        0.0215
     33 C          63.7341   84.6292   10.6759 C.3     1  UNL1        0.1209
     34 C          63.2413   83.6993   11.7447 C.ar    1  UNL1        0.0080
     35 C          62.9899   84.2155   13.1305 C.ar    1  UNL1       -0.0047
     36 C          62.4971   83.2854   14.1993 C.ar    1  UNL1       -0.0066
     37 C          62.2556   81.8394   13.8823 C.ar    1  UNL1       -0.0021
     38 C          62.5069   81.3232   12.4965 C.ar    1  UNL1        0.0109
     39 C          62.9997   82.2531   11.4277 C.ar    1  UNL1        0.0553
     40 CL         63.2511   81.7370   10.0419 Cl      1  UNL1       -0.0825
     41 C          62.2458   83.8016   15.5851 C.3     1  UNL1        0.0957
     42 N          62.2234   85.2791   15.8425 N.3     1  UNL1       -0.2914
     43 H          61.2884   85.5047   16.1821 H       1  UNL1        0.1236
     44 C          63.1941   85.8865   16.8115 C.3     1  UNL1        0.1074
     45 C          62.7637   87.0218   17.6922 C.3     1  UNL1        0.2102
     46 F          62.7263   86.8435   19.1811 F       1  UNL1       -0.2328
@<TRIPOS>BOND
     1    18    19    1
     2    19    20   ar
     3    20    21   ar
     4    21    22    1
     5    21    23   ar
     6    23    17    1
     7    17    16    1
     8    16    15    1
     9    15    14    1
    10    14     8    1
    11     8     9   ar
    12     9    10   ar
    13    10    11   ar
    14     1    11    1
    15     1     2    1
    16     2     3    1
    17     3     4    1
    18     4     5    1
    19     5     6    1
    20     6    27    1
    21    27    28    2
    22    27    29   am
    23    29    33    1
    24    33    34    1
    25    34    35   ar
    26    35    36   ar
    27    36    41    1
    28    41    42    1
    29    42    44    1
    30    44    45    1
    31    45    46    1
    32    36    37   ar
    33    37    38   ar
    34    38    39   ar
    35    39    40    1
    36    29    30    1
    37    30    31    1
    38    31    32    1
    39    11    12   ar
    40    12    13   ar
    41    23    24   ar
    42    24    25    1
    43    24    26   ar
    44    26    19   ar
    45    13     8   ar
    46     6     1    1
    47    39    34   ar
    48    32    30    1
    49     4     7    1
    50    42    43    1
@<TRIPOS>MOLECULE
*****
 46 50 0 0 0
SMALL
GASTEIGER

@<TRIPOS>ATOM
      1 C          60.8841   87.3975    8.7193 C.3     1  UNL1        0.0337
      2 C          59.9051   87.2338    7.5947 C.3     1  UNL1        0.0220
      3 C          59.1002   88.4088    7.1241 C.3     1  UNL1        0.0689
      4 N          59.2742   89.7475    7.7781 N.3     1  UNL1       -0.2970
      5 C          60.2533   89.9112    8.9027 C.3     1  UNL1        0.0780
      6 C          61.0582   88.7362    9.3733 C.3     1  UNL1        0.0964
      7 H          58.3605   90.0188    8.1412 H       1  UNL1        0.1233
      8 C          63.2990   83.8726   10.1312 C.ar    1  UNL1        0.1387
      9 C          63.4705   84.3875    8.7328 C.ar    1  UNL1        0.0366
     10 C          62.6656   85.5624    8.2622 C.ar    1  UNL1       -0.0012
     11 C          61.6891   86.2225    9.1899 C.ar    1  UNL1       -0.0217
     12 C          61.5175   85.7076   10.5884 C.ar    1  UNL1       -0.0012
     13 C          62.3225   84.5327   11.0590 C.ar    1  UNL1        0.0366
     14 O          64.1039   82.6976   10.6018 O.3     1  UNL1       -0.4714
     15 C          63.4785   81.6711   11.4991 C.3     1  UNL1        0.2525
     16 C          63.7612   81.6905   12.9721 C.3     1  UNL1        0.2525
     17 O          64.6357   82.7613   13.5539 O.3     1  UNL1       -0.4697
     18 C          62.3596   86.6938   17.4725 C.3     1  UNL1        0.0311
     19 C          62.9287   85.7107   16.4928 C.ar    1  UNL1       -0.0200
     20 C          62.1109   84.5334   16.0509 C.ar    1  UNL1        0.0103
     21 C          62.6799   83.5503   15.0712 C.ar    1  UNL1        0.0921
     22 CL         61.8621   82.3731   14.6292 Cl      1  UNL1       -0.0791
     23 C          64.0667   83.7444   14.5336 C.ar    1  UNL1        0.1596
     24 C          64.8845   84.9217   14.9755 C.ar    1  UNL1        0.0921
     25 CL         66.2713   85.1158   14.4379 Cl      1  UNL1       -0.0791
     26 C          64.3154   85.9048   15.9552 C.ar    1  UNL1        0.0103
     27 C          62.0372   88.8999   10.4979 C.2     1  UNL1        0.2270
     28 O          63.4807   88.5473   10.2930 O.2     1  UNL1       -0.2748
     29 N          61.5727   89.4161   11.8274 N.am    1  UNL1       -0.2770
     30 C          60.1292   89.7686   12.0324 C.3     1  UNL1        0.0758
     31 C          58.7736   89.4284   12.5769 C.3     1  UNL1        0.0215
     32 C          58.9847   90.7194   11.8429 C.3     1  UNL1        0.0215
     33 C          62.5517   89.5798   12.9521 C.3     1  UNL1        0.1209
     34 C          63.6474   90.5991   12.8503 C.ar    1  UNL1        0.0080
     35 C          63.8560   91.3506   11.5690 C.ar    1  UNL1       -0.0047
     36 C          64.9517   92.3700   11.4673 C.ar    1  UNL1       -0.0066
     37 C          65.8388   92.6378   12.6468 C.ar    1  UNL1       -0.0021
     38 C          65.6302   91.8863   13.9281 C.ar    1  UNL1        0.0109
     39 C          64.5345   90.8670   14.0299 C.ar    1  UNL1        0.0553
     40 CL         64.3260   90.1155   15.3112 Cl      1  UNL1       -0.0825
     41 C          65.1603   93.1215   10.1859 C.3     1  UNL1        0.0957
     42 N          66.1142   94.2782   10.1416 N.3     1  UNL1       -0.2914
     43 H          66.2761   94.5635   11.1074 H       1  UNL1        0.1236
     44 C          67.4633   94.1138    9.5068 C.3     1  UNL1        0.1074
     45 C          68.0465   92.7434    9.3287 C.3     1  UNL1        0.2102
     46 F          68.3293   91.8871   10.5274 F       1  UNL1       -0.2328
@<TRIPOS>BOND
     1    18    19    1
     2    19    20   ar
     3    20    21   ar
     4    21    22    1
     5    21    23   ar
     6    23    17    1
     7    17    16    1
     8    16    15    1
     9    15    14    1
    10    14     8    1
    11     8     9   ar
    12     9    10   ar
    13    10    11   ar
    14     1    11    1
    15     1     2    1
    16     2     3    1
    17     3     4    1
    18     4     5    1
    19     5     6    1
    20     6    27    1
    21    27    28    2
    22    27    29   am
    23    29    33    1
    24    33    34    1
    25    34    35   ar
    26    35    36   ar
    27    36    41    1
    28    41    42    1
    29    42    44    1
    30    44    45    1
    31    45    46    1
    32    36    37   ar
    33    37    38   ar
    34    38    39   ar
    35    39    40    1
    36    29    30    1
    37    30    31    1
    38    31    32    1
    39    11    12   ar
    40    12    13   ar
    41    23    24   ar
    42    24    25    1
    43    24    26   ar
    44    26    19   ar
    45    13     8   ar
    46     6     1    1
    47    39    34   ar
    48    32    30    1
    49     4     7    1
    50    42    43    1
@<TRIPOS>MOLECULE
*****
 46 50 0 0 0
SMALL
GASTEIGER

@<TRIPOS>ATOM
      1 C          60.9519   86.7181    9.2869 C.3     1  UNL1        0.0337
      2 C          59.9843   86.1947    8.2672 C.3     1  UNL1        0.0220
      3 C          59.1900   87.1504    7.4271 C.3     1  UNL1        0.0689
      4 N          59.3634   88.6295    7.6066 N.3     1  UNL1       -0.2970
      5 C          60.3310   89.1529    8.6263 C.3     1  UNL1        0.0780
      6 C          61.1253   88.1972    9.4664 C.3     1  UNL1        0.0964
      7 H          58.4471   89.0060    7.8497 H       1  UNL1        0.1233
      8 C          63.3347   83.8511   11.8073 C.ar    1  UNL1        0.1387
      9 C          63.5353   83.8886   10.3213 C.ar    1  UNL1        0.0366
     10 C          62.7410   84.8443    9.4812 C.ar    1  UNL1       -0.0012
     11 C          61.7462   85.7624   10.1270 C.ar    1  UNL1       -0.0217
     12 C          61.5455   85.7249   11.6131 C.ar    1  UNL1       -0.0012
     13 C          62.3398   84.7693   12.4533 C.ar    1  UNL1        0.0366
     14 O          64.1289   82.8954   12.6475 O.3     1  UNL1       -0.4714
     15 C          63.9058   82.8358   14.1296 C.3     1  UNL1        0.2525
     16 C          64.5378   83.8600   15.0250 C.3     1  UNL1        0.2525
     17 O          63.7024   84.5937   16.0318 O.3     1  UNL1       -0.4697
     18 C          63.6202   90.5931   16.0611 C.3     1  UNL1        0.0311
     19 C          63.6407   89.0933   16.0538 C.ar    1  UNL1       -0.0200
     20 C          64.3336   88.3581   14.9450 C.ar    1  UNL1        0.0103
     21 C          64.3541   86.8582   14.9377 C.ar    1  UNL1        0.0921
     22 CL         65.0471   86.1231   13.8288 Cl      1  UNL1       -0.0791
     23 C          63.6818   86.0936   16.0391 C.ar    1  UNL1        0.1596
     24 C          62.9890   86.8287   17.1479 C.ar    1  UNL1        0.0921
     25 CL         62.3166   86.0641   18.2494 Cl      1  UNL1       -0.0791
     26 C          62.9684   88.3286   17.1552 C.ar    1  UNL1        0.0103
     27 C          62.0929   88.7206   10.4861 C.2     1  UNL1        0.2270
     28 O          63.5517   88.3895   10.3751 O.2     1  UNL1       -0.2748
     29 N          61.6018   89.5752   11.6168 N.am    1  UNL1       -0.2770
     30 C          60.1430   89.9064   11.7278 C.3     1  UNL1        0.0758
     31 C          59.0083   90.8636   11.5132 C.3     1  UNL1        0.0215
     32 C          58.7511   89.5228   12.1346 C.3     1  UNL1        0.0215
     33 C          62.5694   90.0986   12.6365 C.3     1  UNL1        0.1209
     34 C          63.6845   91.0088   12.2145 C.ar    1  UNL1        0.0080
     35 C          64.8356   91.2644   13.1416 C.ar    1  UNL1       -0.0047
     36 C          65.9508   92.1746   12.7195 C.ar    1  UNL1       -0.0066
     37 C          65.9147   92.8291   11.3703 C.ar    1  UNL1       -0.0021
     38 C          64.7636   92.5735   10.4432 C.ar    1  UNL1        0.0109
     39 C          63.6485   91.6633   10.8652 C.ar    1  UNL1        0.0553
     40 CL         62.4973   91.4077    9.9381 Cl      1  UNL1       -0.0825
     41 C          67.1019   92.4302   13.6466 C.3     1  UNL1        0.0957
     42 N          66.9688   92.1257   15.1093 N.3     1  UNL1       -0.2914
     43 H          66.6625   91.1554   15.1814 H       1  UNL1        0.1236
     44 C          68.1535   92.2743   16.0172 C.3     1  UNL1        0.1074
     45 C          69.1477   93.3721   15.7793 C.3     1  UNL1        0.2102
     46 F          68.8403   94.7715   16.2234 F       1  UNL1       -0.2328
@<TRIPOS>BOND
     1    18    19    1
     2    19    20   ar
     3    20    21   ar
     4    21    22    1
     5    21    23   ar
     6    23    17    1
     7    17    16    1
     8    16    15    1
     9    15    14    1
    10    14     8    1
    11     8     9   ar
    12     9    10   ar
    13    10    11   ar
    14     1    11    1
    15     1     2    1
    16     2     3    1
    17     3     4    1
    18     4     5    1
    19     5     6    1
    20     6    27    1
    21    27    28    2
    22    27    29   am
    23    29    33    1
    24    33    34    1
    25    34    35   ar
    26    35    36   ar
    27    36    41    1
    28    41    42    1
    29    42    44    1
    30    44    45    1
    31    45    46    1
    32    36    37   ar
    33    37    38   ar
    34    38    39   ar
    35    39    40    1
    36    29    30    1
    37    30    31    1
    38    31    32    1
    39    11    12   ar
    40    12    13   ar
    41    23    24   ar
    42    24    25    1
    43    24    26   ar
    44    26    19   ar
    45    13     8   ar
    46     6     1    1
    47    39    34   ar
    48    32    30    1
    49     4     7    1
    50    42    43    1
@<TRIPOS>MOLECULE
*****
 46 50 0 0 0
SMALL
GASTEIGER

@<TRIPOS>ATOM
      1 C          60.4440   88.0118    9.4738 C.3     1  UNL1        0.0337
      2 C          59.4914   88.7116    8.5503 C.3     1  UNL1        0.0220
      3 C          58.8147   87.9475    7.4511 C.3     1  UNL1        0.0689
      4 N          59.0906   86.4836    7.2754 N.3     1  UNL1       -0.2970
      5 C          60.0432   85.7837    8.1989 C.3     1  UNL1        0.0780
      6 C          60.7199   86.5478    9.2981 C.3     1  UNL1        0.0964
      7 H          59.4553   86.3641    6.3303 H       1  UNL1        0.1233
      8 C          62.4740   90.3040   12.7715 C.ar    1  UNL1        0.1387
      9 C          61.0042   90.0160   12.8530 C.ar    1  UNL1        0.0366
     10 C          60.3275   89.2520   11.7538 C.ar    1  UNL1       -0.0012
     11 C          61.1206   88.7758   10.5731 C.ar    1  UNL1       -0.0217
     12 C          62.5905   89.0637   10.4915 C.ar    1  UNL1       -0.0012
     13 C          63.2672   89.8278   11.5908 C.ar    1  UNL1        0.0366
     14 O          63.1507   91.0680   13.8708 O.3     1  UNL1       -0.4714
     15 C          64.4357   90.5611   14.4555 C.3     1  UNL1        0.2525
     16 C          65.5023   91.5289   14.8745 C.3     1  UNL1        0.2525
     17 O          65.8243   92.7110   14.0091 O.3     1  UNL1       -0.4697
     18 C          68.8516   91.9426    8.8861 C.3     1  UNL1        0.0311
     19 C          68.0947   92.1347   10.1668 C.ar    1  UNL1       -0.0200
     20 C          68.7935   91.9664   11.4834 C.ar    1  UNL1        0.0103
     21 C          68.0367   92.1584   12.7641 C.ar    1  UNL1        0.0921
     22 CL         68.7356   91.9900   14.0807 Cl      1  UNL1       -0.0791
     23 C          66.5811   92.5189   12.7283 C.ar    1  UNL1        0.1596
     24 C          65.8824   92.6873   11.4118 C.ar    1  UNL1        0.0921
     25 CL         64.4267   93.0478   11.3760 Cl      1  UNL1       -0.0791
     26 C          66.6392   92.4952   10.1310 C.ar    1  UNL1        0.0103
     27 C          61.6724   85.8480   10.2216 C.2     1  UNL1        0.2270
     28 O          61.5503   86.0320   11.7052 O.2     1  UNL1       -0.2748
     29 N          62.7472   84.9642    9.6614 N.am    1  UNL1       -0.2770
     30 C          62.8694   84.7803    8.1778 C.3     1  UNL1        0.0758
     31 C          62.3600   84.1919    6.8955 C.3     1  UNL1        0.0215
     32 C          63.5903   85.0500    6.8904 C.3     1  UNL1        0.0215
     33 C          63.6998   84.2644   10.5849 C.3     1  UNL1        0.1209
     34 C          63.1727   83.4137   11.7022 C.ar    1  UNL1        0.0080
     35 C          62.9494   84.0121   13.0594 C.ar    1  UNL1       -0.0047
     36 C          62.4223   83.1614   14.1768 C.ar    1  UNL1       -0.0066
     37 C          62.1184   81.7122   13.9369 C.ar    1  UNL1       -0.0021
     38 C          62.3416   81.1138   12.5797 C.ar    1  UNL1        0.0109
     39 C          62.8688   81.9645   11.4623 C.ar    1  UNL1        0.0553
     40 CL         63.0920   81.3660   10.1051 Cl      1  UNL1       -0.0825
     41 C          62.1990   83.7598   15.5340 C.3     1  UNL1        0.0957
     42 N          62.3152   85.2426   15.7282 N.3     1  UNL1       -0.2914
     43 H          61.6322   85.5007   16.4404 H       1  UNL1        0.1236
     44 C          63.6245   85.8441   16.1456 C.3     1  UNL1        0.1074
     45 C          64.6417   86.2196   15.1092 C.3     1  UNL1        0.2102
     46 F          64.3555   87.3338   14.1466 F       1  UNL1       -0.2328
@<TRIPOS>BOND
     1    18    19    1
     2    19    20   ar
     3    20    21   ar
     4    21    22    1
     5    21    23   ar
     6    23    17    1
     7    17    16    1
     8    16    15    1
     9    15    14    1
    10    14     8    1
    11     8     9   ar
    12     9    10   ar
    13    10    11   ar
    14     1    11    1
    15     1     2    1
    16     2     3    1
    17     3     4    1
    18     4     5    1
    19     5     6    1
    20     6    27    1
    21    27    28    2
    22    27    29   am
    23    29    33    1
    24    33    34    1
    25    34    35   ar
    26    35    36   ar
    27    36    41    1
    28    41    42    1
    29    42    44    1
    30    44    45    1
    31    45    46    1
    32    36    37   ar
    33    37    38   ar
    34    38    39   ar
    35    39    40    1
    36    29    30    1
    37    30    31    1
    38    31    32    1
    39    11    12   ar
    40    12    13   ar
    41    23    24   ar
    42    24    25    1
    43    24    26   ar
    44    26    19   ar
    45    13     8   ar
    46     6     1    1
    47    39    34   ar
    48    32    30    1
    49     4     7    1
    50    42    43    1
@<TRIPOS>MOLECULE
*****
 46 50 0 0 0
SMALL
GASTEIGER

@<TRIPOS>ATOM
      1 C          62.6987   86.0327   12.1562 C.3     1  UNL1        0.0337
      2 C          62.7196   84.5661   12.4698 C.3     1  UNL1        0.0220
      3 C          63.5106   84.0605   13.6397 C.3     1  UNL1        0.0689
      4 N          64.2808   85.0215   14.4959 N.3     1  UNL1       -0.2970
      5 C          64.2599   86.4883   14.1823 C.3     1  UNL1        0.0780
      6 C          63.4688   86.9939   13.0124 C.3     1  UNL1        0.0964
      7 H          65.2569   84.7275   14.4638 H       1  UNL1        0.1233
      8 C          60.3255   87.5495    8.6465 C.ar    1  UNL1        0.1387
      9 C          59.9012   87.8932   10.0436 C.ar    1  UNL1        0.0366
     10 C          60.6923   87.3876   11.2135 C.ar    1  UNL1       -0.0012
     11 C          61.9076   86.5383   10.9863 C.ar    1  UNL1       -0.0217
     12 C          62.3319   86.1946    9.5892 C.ar    1  UNL1       -0.0012
     13 C          61.5409   86.7002    8.4193 C.ar    1  UNL1        0.0366
     14 O          59.5344   88.0551    7.4767 O.3     1  UNL1       -0.4714
     15 C          59.5034   89.5232    7.1705 C.3     1  UNL1        0.2525
     16 C          59.6715   89.9985    5.7578 C.3     1  UNL1        0.2525
     17 O          60.8914   90.7802    5.3697 O.3     1  UNL1       -0.4697
     18 C          60.8967   94.0217    0.3206 C.3     1  UNL1        0.0311
     19 C          60.8954   93.2113    1.5829 C.ar    1  UNL1       -0.0200
     20 C          62.1101   92.4197    1.9672 C.ar    1  UNL1        0.0103
     21 C          62.1088   91.6093    3.2294 C.ar    1  UNL1        0.0921
     22 CL         63.3236   90.8177    3.6137 Cl      1  UNL1       -0.0791
     23 C          60.8927   91.5906    4.1074 C.ar    1  UNL1        0.1596
     24 C          59.6780   92.3822    3.7231 C.ar    1  UNL1        0.0921
     25 CL         58.4619   92.3634    4.6010 Cl      1  UNL1       -0.0791
     26 C          59.6793   93.1925    2.4608 C.ar    1  UNL1        0.0103
     27 C          63.4479   88.4605   12.6988 C.2     1  UNL1        0.2270
     28 O          63.5032   88.9235   11.2731 O.2     1  UNL1       -0.2748
     29 N          63.3716   89.4642   13.8109 N.am    1  UNL1       -0.2770
     30 C          63.3163   89.0013   15.2366 C.3     1  UNL1        0.0758
     31 C          63.4577   87.9080   16.2537 C.3     1  UNL1        0.0215
     32 C          63.0790   89.2927   16.6887 C.3     1  UNL1        0.0215
     33 C          63.3507   90.9310   13.4973 C.3     1  UNL1        0.1209
     34 C          64.6305   91.6507   13.1904 C.ar    1  UNL1        0.0080
     35 C          65.0050   91.9411   11.7672 C.ar    1  UNL1       -0.0047
     36 C          66.2848   92.6608   11.4603 C.ar    1  UNL1       -0.0066
     37 C          67.1901   93.0900   12.5766 C.ar    1  UNL1       -0.0021
     38 C          66.8156   92.7996   13.9998 C.ar    1  UNL1        0.0109
     39 C          65.5358   92.0800   14.3067 C.ar    1  UNL1        0.0553
     40 CL         65.1613   91.7896   15.7299 Cl      1  UNL1       -0.0825
     41 C          66.6593   92.9512   10.0372 C.3     1  UNL1        0.0957
     42 N          67.8988   93.7395    9.7337 N.3     1  UNL1       -0.2914
     43 H          68.4955   93.1415    9.1620 H       1  UNL1        0.1236
     44 C          67.7950   95.0556    9.0215 C.3     1  UNL1        0.1074
     45 C          66.9169   96.1395    9.5727 C.3     1  UNL1        0.2102
     46 F          66.7870   96.3176   11.0564 F       1  UNL1       -0.2328
@<TRIPOS>BOND
     1    18    19    1
     2    19    20   ar
     3    20    21   ar
     4    21    22    1
     5    21    23   ar
     6    23    17    1
     7    17    16    1
     8    16    15    1
     9    15    14    1
    10    14     8    1
    11     8     9   ar
    12     9    10   ar
    13    10    11   ar
    14     1    11    1
    15     1     2    1
    16     2     3    1
    17     3     4    1
    18     4     5    1
    19     5     6    1
    20     6    27    1
    21    27    28    2
    22    27    29   am
    23    29    33    1
    24    33    34    1
    25    34    35   ar
    26    35    36   ar
    27    36    41    1
    28    41    42    1
    29    42    44    1
    30    44    45    1
    31    45    46    1
    32    36    37   ar
    33    37    38   ar
    34    38    39   ar
    35    39    40    1
    36    29    30    1
    37    30    31    1
    38    31    32    1
    39    11    12   ar
    40    12    13   ar
    41    23    24   ar
    42    24    25    1
    43    24    26   ar
    44    26    19   ar
    45    13     8   ar
    46     6     1    1
    47    39    34   ar
    48    32    30    1
    49     4     7    1
    50    42    43    1
@<TRIPOS>MOLECULE
*****
 46 50 0 0 0
SMALL
GASTEIGER

@<TRIPOS>ATOM
      1 C          60.3523   88.4979   11.3542 C.3     1  UNL1        0.0337
      2 C          58.9101   88.2298   11.6677 C.3     1  UNL1        0.0220
      3 C          58.0107   89.3565   12.0823 C.3     1  UNL1        0.0689
      4 N          58.5536   90.7511   12.1834 N.3     1  UNL1       -0.2970
      5 C          59.9958   91.0192   11.8700 C.3     1  UNL1        0.0780
      6 C          60.8951   89.8926   11.4554 C.3     1  UNL1        0.0964
      7 H          58.3989   91.0583   13.1437 H       1  UNL1        0.1233
      8 C          63.0503   85.1180   10.1105 C.ar    1  UNL1        0.1387
      9 C          62.7969   85.3787   11.5657 C.ar    1  UNL1        0.0366
     10 C          61.8976   86.5054   11.9803 C.ar    1  UNL1       -0.0012
     11 C          61.2516   87.3712   10.9396 C.ar    1  UNL1       -0.0217
     12 C          61.5050   87.1105    9.4843 C.ar    1  UNL1       -0.0012
     13 C          62.4043   85.9839    9.0697 C.ar    1  UNL1        0.0366
     14 O          63.9496   83.9914    9.6959 O.3     1  UNL1       -0.4714
     15 C          64.6941   83.2050   10.7340 C.3     1  UNL1        0.2525
     16 C          63.9415   82.3490   11.7090 C.3     1  UNL1        0.2525
     17 O          64.3957   82.2605   13.1358 O.3     1  UNL1       -0.4697
     18 C          62.3493   86.1871   17.1848 C.3     1  UNL1        0.0311
     19 C          62.8609   85.2055   16.1725 C.ar    1  UNL1       -0.0200
     20 C          64.2171   85.3969   15.5610 C.ar    1  UNL1        0.0103
     21 C          64.7287   84.4152   14.5488 C.ar    1  UNL1        0.0921
     22 CL         66.0850   84.6067   13.9372 Cl      1  UNL1       -0.0791
     23 C          63.8841   83.2422   14.1481 C.ar    1  UNL1        0.1596
     24 C          62.5279   83.0508   14.7596 C.ar    1  UNL1        0.0921
     25 CL         61.6832   81.8777   14.3589 Cl      1  UNL1       -0.0791
     26 C          62.0163   84.0324   15.7718 C.ar    1  UNL1        0.0103
     27 C          62.3373   90.1606   11.1420 C.2     1  UNL1        0.2270
     28 O          62.7676   90.3823    9.7222 O.2     1  UNL1       -0.2748
     29 N          63.3492   90.2068   12.2483 N.am    1  UNL1       -0.2770
     30 C          62.9189   89.9851   13.6680 C.3     1  UNL1        0.0758
     31 C          61.9471   89.4117   14.6563 C.3     1  UNL1        0.0215
     32 C          63.1453   90.1743   15.1386 C.3     1  UNL1        0.0215
     33 C          64.7914   90.4748   11.9349 C.3     1  UNL1        0.1209
     34 C          65.3557   91.8522   12.1200 C.ar    1  UNL1        0.0080
     35 C          65.2329   92.8669   11.0222 C.ar    1  UNL1       -0.0047
     36 C          65.7973   94.2443   11.2074 C.ar    1  UNL1       -0.0066
     37 C          66.4844   94.6070   12.4904 C.ar    1  UNL1       -0.0021
     38 C          66.6072   93.5924   13.5883 C.ar    1  UNL1        0.0109
     39 C          66.0429   92.2150   13.4031 C.ar    1  UNL1        0.0553
     40 CL         66.1657   91.2003   14.5010 Cl      1  UNL1       -0.0825
     41 C          65.6745   95.2590   10.1095 C.3     1  UNL1        0.0957
     42 N          66.4907   95.1140    8.8594 N.3     1  UNL1       -0.2914
     43 H          66.5109   96.0308    8.4129 H       1  UNL1        0.1236
     44 C          67.9119   94.6413    8.9423 C.3     1  UNL1        0.1074
     45 C          68.2226   93.1774    8.8397 C.3     1  UNL1        0.2102
     46 F          68.4498   92.3699   10.0832 F       1  UNL1       -0.2328
@<TRIPOS>BOND
     1    18    19    1
     2    19    20   ar
     3    20    21   ar
     4    21    22    1
     5    21    23   ar
     6    23    17    1
     7    17    16    1
     8    16    15    1
     9    15    14    1
    10    14     8    1
    11     8     9   ar
    12     9    10   ar
    13    10    11   ar
    14     1    11    1
    15     1     2    1
    16     2     3    1
    17     3     4    1
    18     4     5    1
    19     5     6    1
    20     6    27    1
    21    27    28    2
    22    27    29   am
    23    29    33    1
    24    33    34    1
    25    34    35   ar
    26    35    36   ar
    27    36    41    1
    28    41    42    1
    29    42    44    1
    30    44    45    1
    31    45    46    1
    32    36    37   ar
    33    37    38   ar
    34    38    39   ar
    35    39    40    1
    36    29    30    1
    37    30    31    1
    38    31    32    1
    39    11    12   ar
    40    12    13   ar
    41    23    24   ar
    42    24    25    1
    43    24    26   ar
    44    26    19   ar
    45    13     8   ar
    46     6     1    1
    47    39    34   ar
    48    32    30    1
    49     4     7    1
    50    42    43    1
@<TRIPOS>MOLECULE
*****
 46 50 0 0 0
SMALL
GASTEIGER

@<TRIPOS>ATOM
      1 C          62.5798   83.4987   14.2112 C.3     1  UNL1        0.0337
      2 C          62.5353   82.2080   14.9740 C.3     1  UNL1        0.0220
      3 C          62.2777   80.9186   14.2522 C.3     1  UNL1        0.0689
      4 N          62.0646   80.9200   12.7674 N.3     1  UNL1       -0.2970
      5 C          62.1091   82.2107   12.0044 C.3     1  UNL1        0.0780
      6 C          62.3667   83.5001   12.7263 C.3     1  UNL1        0.0964
      7 H          61.1448   80.5115   12.6016 H       1  UNL1        0.1233
      8 C          63.3526   87.3669   16.3768 C.ar    1  UNL1        0.1387
      9 C          64.1998   86.9842   15.1997 C.ar    1  UNL1        0.0366
     10 C          63.9422   85.6948   14.4778 C.ar    1  UNL1       -0.0012
     11 C          62.8374   84.7881   14.9331 C.ar    1  UNL1       -0.0217
     12 C          61.9900   85.1708   16.1102 C.ar    1  UNL1       -0.0012
     13 C          62.2476   86.4602   16.8321 C.ar    1  UNL1        0.0366
     14 O          63.6101   88.6563   17.0987 O.3     1  UNL1       -0.4714
     15 C          63.0330   89.9377   16.5743 C.3     1  UNL1        0.2525
     16 C          63.9331   90.9722   15.9663 C.3     1  UNL1        0.2525
     17 O          64.8895   90.5873   14.8768 O.3     1  UNL1       -0.4697
     18 C          66.0899   94.4419   10.4382 C.3     1  UNL1        0.0311
     19 C          65.7898   93.4782   11.5479 C.ar    1  UNL1       -0.0200
     20 C          66.4526   93.6423   12.8834 C.ar    1  UNL1        0.0103
     21 C          66.1525   92.6786   13.9931 C.ar    1  UNL1        0.0921
     22 CL         66.8153   92.8427   15.3287 Cl      1  UNL1       -0.0791
     23 C          65.1896   91.5509   13.7672 C.ar    1  UNL1        0.1596
     24 C          64.5268   91.3868   12.4316 C.ar    1  UNL1        0.0921
     25 CL         63.5639   90.2591   12.2057 Cl      1  UNL1       -0.0791
     26 C          64.8269   92.3505   11.3220 C.ar    1  UNL1        0.0103
     27 C          62.4112   84.7908   11.9635 C.2     1  UNL1        0.2270
     28 O          61.6634   85.9881   12.4708 O.2     1  UNL1       -0.2748
     29 N          63.2036   84.8843   10.6933 N.am    1  UNL1       -0.2770
     30 C          63.9514   83.6871   10.1860 C.3     1  UNL1        0.0758
     31 C          64.2913   82.7451    9.0693 C.3     1  UNL1        0.0215
     32 C          64.9067   82.5554   10.4240 C.3     1  UNL1        0.0215
     33 C          63.2481   86.1751    9.9303 C.3     1  UNL1        0.1209
     34 C          61.9769   86.7961    9.4321 C.ar    1  UNL1        0.0080
     35 C          61.5156   88.1102    9.9892 C.ar    1  UNL1       -0.0047
     36 C          60.2442   88.7312    9.4909 C.ar    1  UNL1       -0.0066
     37 C          59.4343   88.0381    8.4357 C.ar    1  UNL1       -0.0021
     38 C          59.8956   86.7239    7.8787 C.ar    1  UNL1        0.0109
     39 C          61.1669   86.1029    8.3769 C.ar    1  UNL1        0.0553
     40 CL         61.6282   84.7888    7.8198 Cl      1  UNL1       -0.0825
     41 C          59.7829   90.0453   10.0479 C.3     1  UNL1        0.0957
     42 N          60.1234   90.4227   11.4592 N.3     1  UNL1       -0.2914
     43 H          59.6336   91.2953   11.6569 H       1  UNL1        0.1236
     44 C          59.8053   89.4831   12.5843 C.3     1  UNL1        0.1074
     45 C          58.3920   89.0339   12.8096 C.3     1  UNL1        0.2102
     46 F          58.0206   88.3376   14.0852 F       1  UNL1       -0.2328
@<TRIPOS>BOND
     1    18    19    1
     2    19    20   ar
     3    20    21   ar
     4    21    22    1
     5    21    23   ar
     6    23    17    1
     7    17    16    1
     8    16    15    1
     9    15    14    1
    10    14     8    1
    11     8     9   ar
    12     9    10   ar
    13    10    11   ar
    14     1    11    1
    15     1     2    1
    16     2     3    1
    17     3     4    1
    18     4     5    1
    19     5     6    1
    20     6    27    1
    21    27    28    2
    22    27    29   am
    23    29    33    1
    24    33    34    1
    25    34    35   ar
    26    35    36   ar
    27    36    41    1
    28    41    42    1
    29    42    44    1
    30    44    45    1
    31    45    46    1
    32    36    37   ar
    33    37    38   ar
    34    38    39   ar
    35    39    40    1
    36    29    30    1
    37    30    31    1
    38    31    32    1
    39    11    12   ar
    40    12    13   ar
    41    23    24   ar
    42    24    25    1
    43    24    26   ar
    44    26    19   ar
    45    13     8   ar
    46     6     1    1
    47    39    34   ar
    48    32    30    1
    49     4     7    1
    50    42    43    1
@<TRIPOS>MOLECULE
*****
 46 50 0 0 0
SMALL
GASTEIGER

@<TRIPOS>ATOM
      1 C          63.6559   83.9527   12.6649 C.3     1  UNL1        0.0337
      2 C          64.5854   82.7772   12.7299 C.3     1  UNL1        0.0220
      3 C          64.7084   81.8524   11.5554 C.3     1  UNL1        0.0689
      4 N          63.9019   82.1031   10.3158 N.3     1  UNL1       -0.2970
      5 C          62.9723   83.2786   10.2507 C.3     1  UNL1        0.0780
      6 C          62.8493   84.2034   11.4252 C.3     1  UNL1        0.0964
      7 H          63.3343   81.2699   10.1602 H       1  UNL1        0.1233
      8 C          63.2869   86.7271   16.1886 C.ar    1  UNL1        0.1387
      9 C          62.5170   85.4400   16.1636 C.ar    1  UNL1        0.0366
     10 C          62.6400   84.5152   14.9890 C.ar    1  UNL1       -0.0012
     11 C          63.5329   84.8775   13.8395 C.ar    1  UNL1       -0.0217
     12 C          64.3029   86.1646   13.8645 C.ar    1  UNL1       -0.0012
     13 C          64.1799   87.0894   15.0390 C.ar    1  UNL1        0.0366
     14 O          63.1639   87.6519   17.3632 O.3     1  UNL1       -0.4714
     15 C          63.2094   89.1369   17.1565 C.3     1  UNL1        0.2525
     16 C          62.8457   89.7200   15.8232 C.3     1  UNL1        0.2525
     17 O          63.2392   91.1281   15.4879 O.3     1  UNL1       -0.4697
     18 C          69.0392   92.5938   15.0285 C.3     1  UNL1        0.0311
     19 C          67.5892   92.2274   15.1433 C.ar    1  UNL1       -0.0200
     20 C          66.9512   91.3557   14.1026 C.ar    1  UNL1        0.0103
     21 C          65.5012   90.9893   14.2175 C.ar    1  UNL1        0.0921
     22 CL         64.8632   90.1176   13.1767 Cl      1  UNL1       -0.0791
     23 C          64.6892   91.4945   15.3730 C.ar    1  UNL1        0.1596
     24 C          65.3272   92.3662   16.4137 C.ar    1  UNL1        0.0921
     25 CL         64.5152   92.8714   17.5694 Cl      1  UNL1       -0.0791
     26 C          66.7772   92.7326   16.2989 C.ar    1  UNL1        0.0103
     27 C          61.9199   85.3789   11.3602 C.2     1  UNL1        0.2270
     28 O          61.2473   85.8731   12.6065 O.2     1  UNL1       -0.2748
     29 N          61.6630   86.0601   10.0488 N.am    1  UNL1       -0.2770
     30 C          62.3356   85.5659    8.8024 C.3     1  UNL1        0.0758
     31 C          62.2480   84.9905    7.4200 C.3     1  UNL1        0.0215
     32 C          63.5880   85.2854    8.0262 C.3     1  UNL1        0.0215
     33 C          60.7334   87.2357    9.9837 C.3     1  UNL1        0.1209
     34 C          61.1678   88.5661   10.5234 C.ar    1  UNL1        0.0080
     35 C          62.4103   89.2201    9.9957 C.ar    1  UNL1       -0.0047
     36 C          62.8447   90.5506   10.5354 C.ar    1  UNL1       -0.0066
     37 C          62.0366   91.2270   11.6028 C.ar    1  UNL1       -0.0021
     38 C          60.7941   90.5730   12.1305 C.ar    1  UNL1        0.0109
     39 C          60.3597   89.2426   11.5908 C.ar    1  UNL1        0.0553
     40 CL         59.1172   88.5886   12.1186 Cl      1  UNL1       -0.0825
     41 C          64.0872   91.2045   10.0077 C.3     1  UNL1        0.0957
     42 N          64.4421   92.5972   10.4373 N.3     1  UNL1       -0.2914
     43 H          63.8598   92.8131   11.2464 H       1  UNL1        0.1236
     44 C          65.8545   92.9271   10.8198 C.3     1  UNL1        0.1074
     45 C          66.1636   94.2298   11.4960 C.3     1  UNL1        0.2102
     46 F          66.1611   94.3167   12.9935 F       1  UNL1       -0.2328
@<TRIPOS>BOND
     1    18    19    1
     2    19    20   ar
     3    20    21   ar
     4    21    22    1
     5    21    23   ar
     6    23    17    1
     7    17    16    1
     8    16    15    1
     9    15    14    1
    10    14     8    1
    11     8     9   ar
    12     9    10   ar
    13    10    11   ar
    14     1    11    1
    15     1     2    1
    16     2     3    1
    17     3     4    1
    18     4     5    1
    19     5     6    1
    20     6    27    1
    21    27    28    2
    22    27    29   am
    23    29    33    1
    24    33    34    1
    25    34    35   ar
    26    35    36   ar
    27    36    41    1
    28    41    42    1
    29    42    44    1
    30    44    45    1
    31    45    46    1
    32    36    37   ar
    33    37    38   ar
    34    38    39   ar
    35    39    40    1
    36    29    30    1
    37    30    31    1
    38    31    32    1
    39    11    12   ar
    40    12    13   ar
    41    23    24   ar
    42    24    25    1
    43    24    26   ar
    44    26    19   ar
    45    13     8   ar
    46     6     1    1
    47    39    34   ar
    48    32    30    1
    49     4     7    1
    50    42    43    1
@<TRIPOS>MOLECULE
*****
 46 50 0 0 0
SMALL
GASTEIGER

@<TRIPOS>ATOM
      1 C          63.0647   85.2319   13.9866 C.3     1  UNL1        0.0337
      2 C          63.2739   84.5012   15.2797 C.3     1  UNL1        0.0220
      3 C          62.8676   83.0625   15.4025 C.3     1  UNL1        0.0689
      4 N          62.2521   82.3545   14.2321 N.3     1  UNL1       -0.2970
      5 C          62.0429   83.0852   12.9389 C.3     1  UNL1        0.0780
      6 C          62.4492   84.5239   12.8161 C.3     1  UNL1        0.0964
      7 H          61.3358   82.0252   14.5359 H       1  UNL1        0.1233
      8 C          64.2837   89.5480   13.6182 C.ar    1  UNL1        0.1387
      9 C          63.5536   88.8762   12.4932 C.ar    1  UNL1        0.0366
     10 C          63.1473   87.4375   12.6160 C.ar    1  UNL1       -0.0012
     11 C          63.4711   86.6706   13.8638 C.ar    1  UNL1       -0.0217
     12 C          64.2011   87.3424   14.9889 C.ar    1  UNL1       -0.0012
     13 C          64.6074   88.7811   14.8661 C.ar    1  UNL1        0.0366
     14 O          64.6900   90.9867   13.4954 O.3     1  UNL1       -0.4714
     15 C          64.8923   91.8167   14.7284 C.3     1  UNL1        0.2525
     16 C          65.9811   92.8477   14.7680 C.3     1  UNL1        0.2525
     17 O          66.1220   93.8333   13.6461 O.3     1  UNL1       -0.4697
     18 C          68.7378   92.1754    8.5072 C.3     1  UNL1        0.0311
     19 C          68.0839   92.5899    9.7919 C.ar    1  UNL1       -0.0200
     20 C          67.0941   93.7169    9.8002 C.ar    1  UNL1        0.0103
     21 C          66.4401   94.1313   11.0849 C.ar    1  UNL1        0.0921
     22 CL         65.4503   95.2584   11.0931 Cl      1  UNL1       -0.0791
     23 C          66.7760   93.4188   12.3614 C.ar    1  UNL1        0.1596
     24 C          67.7657   92.2918   12.3531 C.ar    1  UNL1        0.0921
     25 CL         68.1016   91.5792   13.6297 Cl      1  UNL1       -0.0791
     26 C          68.4197   91.8773   11.0684 C.ar    1  UNL1        0.0103
     27 C          62.2400   85.2545   11.5229 C.2     1  UNL1        0.2270
     28 O          61.2936   86.4167   11.4627 O.2     1  UNL1       -0.2748
     29 N          62.9773   84.8230   10.2900 N.am    1  UNL1       -0.2770
     30 C          63.9237   83.6609   10.3502 C.3     1  UNL1        0.0758
     31 C          64.4983   82.4202    9.7333 C.3     1  UNL1        0.0215
     32 C          64.9883   82.8886   11.0714 C.3     1  UNL1        0.0215
     33 C          62.7681   85.5537    8.9967 C.3     1  UNL1        0.1209
     34 C          61.7936   86.6919    8.9275 C.ar    1  UNL1        0.0080
     35 C          62.0869   87.9752    9.6466 C.ar    1  UNL1       -0.0047
     36 C          61.1123   89.1134    9.5773 C.ar    1  UNL1       -0.0066
     37 C          59.8445   88.9683    8.7890 C.ar    1  UNL1       -0.0021
     38 C          59.5512   87.6850    8.0698 C.ar    1  UNL1        0.0109
     39 C          60.5257   86.5468    8.1391 C.ar    1  UNL1        0.0553
     40 CL         60.2324   85.2635    7.4200 Cl      1  UNL1       -0.0825
     41 C          61.4056   90.3967   10.2964 C.3     1  UNL1        0.0957
     42 N          60.7236   90.7001   11.5975 N.3     1  UNL1       -0.2914
     43 H          60.7628   91.7118   11.7215 H       1  UNL1        0.1236
     44 C          59.2955   90.2930   11.8085 C.3     1  UNL1        0.1074
     45 C          58.9775   88.9529   12.4027 C.3     1  UNL1        0.2102
     46 F          57.7661   88.7859   13.2713 F       1  UNL1       -0.2328
@<TRIPOS>BOND
     1    18    19    1
     2    19    20   ar
     3    20    21   ar
     4    21    22    1
     5    21    23   ar
     6    23    17    1
     7    17    16    1
     8    16    15    1
     9    15    14    1
    10    14     8    1
    11     8     9   ar
    12     9    10   ar
    13    10    11   ar
    14     1    11    1
    15     1     2    1
    16     2     3    1
    17     3     4    1
    18     4     5    1
    19     5     6    1
    20     6    27    1
    21    27    28    2
    22    27    29   am
    23    29    33    1
    24    33    34    1
    25    34    35   ar
    26    35    36   ar
    27    36    41    1
    28    41    42    1
    29    42    44    1
    30    44    45    1
    31    45    46    1
    32    36    37   ar
    33    37    38   ar
    34    38    39   ar
    35    39    40    1
    36    29    30    1
    37    30    31    1
    38    31    32    1
    39    11    12   ar
    40    12    13   ar
    41    23    24   ar
    42    24    25    1
    43    24    26   ar
    44    26    19   ar
    45    13     8   ar
    46     6     1    1
    47    39    34   ar
    48    32    30    1
    49     4     7    1
    50    42    43    1
