@<TRIPOS>MOLECULE
*****
 25 27 0 0 0
SMALL
GASTEIGER

@<TRIPOS>ATOM
      1 C          63.3762   83.9418   11.5362 C.ar    1  UNL1        0.1109
      2 C          63.7276   83.8545   10.0806 C.ar    1  UNL1        0.1468
      3 F          64.7026   82.8184    9.6053 F       1  UNL1       -0.2039
      4 C          63.1040   84.8033    9.1003 C.ar    1  UNL1        0.0331
      5 C          62.1290   85.8394    9.5756 C.ar    1  UNL1        0.0416
      6 C          61.7776   85.9267   11.0313 C.ar    1  UNL1        0.1667
      7 C          62.4012   84.9779   12.0116 C.ar    1  UNL1        0.1803
      8 F          62.0498   85.0652   13.4672 F       1  UNL1       -0.2007
      9 N          64.9822   83.5003   13.5302 N.am    1  UNL1       -0.3252
     10 C          63.9998   82.9931   12.5165 C.2     1  UNL1        0.2472
     11 O          63.6409   81.5369   12.4831 O.2     1  UNL1       -0.2702
     12 H          65.3915   82.8776   14.1735 H       1  UNL1        0.1453
     13 H          65.2177   84.4560   13.5521 H       1  UNL1        0.1453
     14 O          60.8027   86.9628   11.5067 O.3     1  UNL1       -0.4661
     15 C          60.8337   88.3449   10.9247 C.3     1  UNL1        0.2575
     16 C          61.9305   89.2946   11.3056 C.ar    1  UNL1        0.1321
     17 N          62.5809   89.3954   12.6535 N.ar    1  UNL1       -0.2390
     18 C          63.6218   90.4734   12.5865 C.ar    1  UNL1        0.0884
     19 C          64.5751   91.0132   13.6110 C.ar    1  UNL1        0.0310
     20 C          65.5213   92.1184   13.2463 C.ar    1  UNL1        0.0592
     21 CL         66.4747   92.6583   14.2708 Cl      1  UNL1       -0.0822
     22 C          65.5142   92.6839   11.8569 C.ar    1  UNL1        0.0120
     23 C          64.5608   92.1442   10.8324 C.ar    1  UNL1        0.0089
     24 C          63.6146   91.0389   11.1972 C.ar    1  UNL1        0.0483
     25 S          62.5694   90.3104   10.4056 S.2     1  UNL1       -0.0672
@<TRIPOS>BOND
     1     9    10   am
     2    10    11    2
     3    10     1    1
     4     1     2   ar
     5     2     3    1
     6     2     4   ar
     7     4     5   ar
     8     5     6   ar
     9     6    14    1
    10    14    15    1
    11    15    16    1
    12    16    17   ar
    13    17    18   ar
    14    18    19   ar
    15    19    20   ar
    16    20    21    1
    17    20    22   ar
    18    22    23   ar
    19    23    24   ar
    20    24    25   ar
    21     6     7   ar
    22     7     8    1
    23     7     1   ar
    24    25    16   ar
    25    24    18   ar
    26     9    12    1
    27     9    13    1
@<TRIPOS>MOLECULE
*****
 25 27 0 0 0
SMALL
GASTEIGER

@<TRIPOS>ATOM
      1 C          66.0403   92.1255   13.0399 C.ar    1  UNL1        0.1109
      2 C          65.9548   92.6738   11.6464 C.ar    1  UNL1        0.1468
      3 F          67.0124   93.6108   11.1429 F       1  UNL1       -0.2039
      4 C          64.8116   92.2851   10.7563 C.ar    1  UNL1        0.0331
      5 C          63.7540   91.3481   11.2598 C.ar    1  UNL1        0.0416
      6 C          63.8396   90.7998   12.6535 C.ar    1  UNL1        0.1667
      7 C          64.9827   91.1885   13.5435 C.ar    1  UNL1        0.1803
      8 F          65.0683   90.6402   14.9370 F       1  UNL1       -0.2007
      9 N          68.5375   91.9032   13.7217 N.am    1  UNL1       -0.3252
     10 C          67.1835   92.5142   13.9299 C.2     1  UNL1        0.2472
     11 O          66.9726   93.5139   15.0283 O.2     1  UNL1       -0.2702
     12 H          69.2877   92.1583   14.3059 H       1  UNL1        0.1453
     13 H          68.6759   91.2471   13.0009 H       1  UNL1        0.1453
     14 O          62.7820   89.8629   13.1570 O.3     1  UNL1       -0.4661
     15 C          61.4660   89.7644   12.4440 C.3     1  UNL1        0.2575
     16 C          61.3073   88.8200   11.2895 C.ar    1  UNL1        0.1321
     17 N          62.3866   87.9641   10.6957 N.ar    1  UNL1       -0.2390
     18 C          61.7877   87.1807    9.5654 C.ar    1  UNL1        0.0884
     19 C          62.3750   86.1769    8.6180 C.ar    1  UNL1        0.0310
     20 C          61.5128   85.5449    7.5658 C.ar    1  UNL1        0.0592
     21 CL         62.1001   84.5411    6.6184 Cl      1  UNL1       -0.0822
     22 C          60.0634   85.9166    7.4610 C.ar    1  UNL1        0.0120
     23 C          59.4761   86.9204    8.4084 C.ar    1  UNL1        0.0089
     24 C          60.3383   87.5524    9.4606 C.ar    1  UNL1        0.0483
     25 S          60.0414   88.5655   10.5261 S.2     1  UNL1       -0.0672
@<TRIPOS>BOND
     1     9    10   am
     2    10    11    2
     3    10     1    1
     4     1     2   ar
     5     2     3    1
     6     2     4   ar
     7     4     5   ar
     8     5     6   ar
     9     6    14    1
    10    14    15    1
    11    15    16    1
    12    16    17   ar
    13    17    18   ar
    14    18    19   ar
    15    19    20   ar
    16    20    21    1
    17    20    22   ar
    18    22    23   ar
    19    23    24   ar
    20    24    25   ar
    21     6     7   ar
    22     7     8    1
    23     7     1   ar
    24    25    16   ar
    25    24    18   ar
    26     9    12    1
    27     9    13    1
@<TRIPOS>MOLECULE
*****
 25 27 0 0 0
SMALL
GASTEIGER

@<TRIPOS>ATOM
      1 C          63.3447   90.6555   13.1371 C.ar    1  UNL1        0.1109
      2 C          64.4616   91.3074   12.3772 C.ar    1  UNL1        0.1468
      3 F          65.7326   91.6777   13.0826 F       1  UNL1       -0.2039
      4 C          64.3076   91.5890   10.9119 C.ar    1  UNL1        0.0331
      5 C          63.0367   91.2187   10.2065 C.ar    1  UNL1        0.0416
      6 C          61.9197   90.5668   10.9665 C.ar    1  UNL1        0.1667
      7 C          62.0737   90.2852   12.4317 C.ar    1  UNL1        0.1803
      8 F          60.9568   89.6333   13.1916 F       1  UNL1       -0.2007
      9 N          63.5868   88.9577   15.0887 N.am    1  UNL1       -0.3252
     10 C          63.4987   90.3739   14.6023 C.2     1  UNL1        0.2472
     11 O          63.5646   91.5086   15.5813 O.2     1  UNL1       -0.2702
     12 H          63.6879   88.7729   16.0504 H       1  UNL1        0.1453
     13 H          63.5436   88.2130   14.4462 H       1  UNL1        0.1453
     14 O          60.6487   90.1965   10.2611 O.3     1  UNL1       -0.4661
     15 C          60.0354   88.8454   10.4807 C.3     1  UNL1        0.2575
     16 C          60.8996   87.6193   10.4740 C.ar    1  UNL1        0.1321
     17 N          61.2434   86.7764   11.6661 N.ar    1  UNL1       -0.2390
     18 C          62.1280   85.6571   11.2029 C.ar    1  UNL1        0.0884
     19 C          62.7749   84.5198   11.9364 C.ar    1  UNL1        0.0310
     20 C          63.6248   83.5336   11.1913 C.ar    1  UNL1        0.0592
     21 CL         64.2718   82.3963   11.9247 Cl      1  UNL1       -0.0822
     22 C          63.8277   83.6847    9.7128 C.ar    1  UNL1        0.0120
     23 C          63.1807   84.8220    8.9793 C.ar    1  UNL1        0.0089
     24 C          62.3309   85.8082    9.7244 C.ar    1  UNL1        0.0483
     25 S          61.5717   87.0209    9.2739 S.2     1  UNL1       -0.0672
@<TRIPOS>BOND
     1     9    10   am
     2    10    11    2
     3    10     1    1
     4     1     2   ar
     5     2     3    1
     6     2     4   ar
     7     4     5   ar
     8     5     6   ar
     9     6    14    1
    10    14    15    1
    11    15    16    1
    12    16    17   ar
    13    17    18   ar
    14    18    19   ar
    15    19    20   ar
    16    20    21    1
    17    20    22   ar
    18    22    23   ar
    19    23    24   ar
    20    24    25   ar
    21     6     7   ar
    22     7     8    1
    23     7     1   ar
    24    25    16   ar
    25    24    18   ar
    26     9    12    1
    27     9    13    1
@<TRIPOS>MOLECULE
*****
 25 27 0 0 0
SMALL
GASTEIGER

@<TRIPOS>ATOM
      1 C          65.4039   92.0343   12.4956 C.ar    1  UNL1        0.1109
      2 C          64.7050   92.0264   11.1685 C.ar    1  UNL1        0.1468
      3 F          65.1949   92.9073   10.0576 F       1  UNL1       -0.2039
      4 C          63.5160   91.1377   10.9522 C.ar    1  UNL1        0.0331
      5 C          63.0262   90.2569   12.0631 C.ar    1  UNL1        0.0416
      6 C          63.7252   90.2647   13.3903 C.ar    1  UNL1        0.1667
      7 C          64.9140   91.1534   13.6065 C.ar    1  UNL1        0.1803
      8 F          65.6130   91.1613   14.9336 F       1  UNL1       -0.2007
      9 N          66.4652   94.4055   12.5230 N.am    1  UNL1       -0.3252
     10 C          66.5928   92.9230   12.7118 C.2     1  UNL1        0.2472
     11 O          67.9094   92.3291   13.1169 O.2     1  UNL1       -0.2702
     12 H          67.2455   94.9888   12.6649 H       1  UNL1        0.1453
     13 H          65.6011   94.7953   12.2572 H       1  UNL1        0.1453
     14 O          63.2353   89.3839   14.5012 O.3     1  UNL1       -0.4661
     15 C          64.1236   88.3086   15.0530 C.3     1  UNL1        0.2575
     16 C          63.9581   86.8901   14.5940 C.ar    1  UNL1        0.1321
     17 N          63.5268   86.4506   13.2263 N.ar    1  UNL1       -0.2390
     18 C          63.4970   84.9510   13.2092 C.ar    1  UNL1        0.0884
     19 C          63.1473   83.9663   12.1331 C.ar    1  UNL1        0.0310
     20 C          63.2103   82.4942   12.4143 C.ar    1  UNL1        0.0592
     21 CL         62.8606   81.5094   11.3382 Cl      1  UNL1       -0.0822
     22 C          63.6232   82.0069   13.7715 C.ar    1  UNL1        0.0120
     23 C          63.9729   82.9917   14.8476 C.ar    1  UNL1        0.0089
     24 C          63.9098   84.4637   14.5664 C.ar    1  UNL1        0.0483
     25 S          64.1948   85.6621   15.4223 S.2     1  UNL1       -0.0672
@<TRIPOS>BOND
     1     9    10   am
     2    10    11    2
     3    10     1    1
     4     1     2   ar
     5     2     3    1
     6     2     4   ar
     7     4     5   ar
     8     5     6   ar
     9     6    14    1
    10    14    15    1
    11    15    16    1
    12    16    17   ar
    13    17    18   ar
    14    18    19   ar
    15    19    20   ar
    16    20    21    1
    17    20    22   ar
    18    22    23   ar
    19    23    24   ar
    20    24    25   ar
    21     6     7   ar
    22     7     8    1
    23     7     1   ar
    24    25    16   ar
    25    24    18   ar
    26     9    12    1
    27     9    13    1
@<TRIPOS>MOLECULE
*****
 25 27 0 0 0
SMALL
GASTEIGER

@<TRIPOS>ATOM
      1 C          65.6091   92.4925   12.5995 C.ar    1  UNL1        0.1109
      2 C          66.1158   92.7883   13.9800 C.ar    1  UNL1        0.1468
      3 F          67.1543   93.8510   14.1860 F       1  UNL1       -0.2039
      4 C          65.5842   92.0215   15.1545 C.ar    1  UNL1        0.0331
      5 C          64.5458   90.9588   14.9485 C.ar    1  UNL1        0.0416
      6 C          64.0390   90.6630   13.5679 C.ar    1  UNL1        0.1667
      7 C          64.5707   91.4298   12.3935 C.ar    1  UNL1        0.1803
      8 F          64.0639   91.1340   11.0131 F       1  UNL1       -0.2007
      9 N          65.2788   94.2808   10.7440 N.am    1  UNL1       -0.3252
     10 C          66.1407   93.2593   11.4251 C.2     1  UNL1        0.2472
     11 O          67.5342   93.0048   10.9318 O.2     1  UNL1       -0.2702
     12 H          65.6278   94.7841    9.9732 H       1  UNL1        0.1453
     13 H          64.3643   94.4478   11.0678 H       1  UNL1        0.1453
     14 O          63.0006   89.6003   13.3619 O.3     1  UNL1       -0.4661
     15 C          61.8268   89.8624   12.4657 C.3     1  UNL1        0.2575
     16 C          61.5343   88.9363   11.3226 C.ar    1  UNL1        0.1321
     17 N          62.5081   87.9930   10.6807 N.ar    1  UNL1       -0.2390
     18 C          61.7924   87.2645    9.5821 C.ar    1  UNL1        0.0884
     19 C          62.2472   86.2160    8.6107 C.ar    1  UNL1        0.0310
     20 C          61.2858   85.6604    7.6022 C.ar    1  UNL1        0.0592
     21 CL         61.7406   84.6118    6.6308 Cl      1  UNL1       -0.0822
     22 C          59.8696   86.1534    7.5651 C.ar    1  UNL1        0.0120
     23 C          59.4148   87.2020    8.5365 C.ar    1  UNL1        0.0089
     24 C          60.3762   87.7575    9.5449 C.ar    1  UNL1        0.0483
     25 S          60.2167   88.7907   10.6206 S.2     1  UNL1       -0.0672
@<TRIPOS>BOND
     1     9    10   am
     2    10    11    2
     3    10     1    1
     4     1     2   ar
     5     2     3    1
     6     2     4   ar
     7     4     5   ar
     8     5     6   ar
     9     6    14    1
    10    14    15    1
    11    15    16    1
    12    16    17   ar
    13    17    18   ar
    14    18    19   ar
    15    19    20   ar
    16    20    21    1
    17    20    22   ar
    18    22    23   ar
    19    23    24   ar
    20    24    25   ar
    21     6     7   ar
    22     7     8    1
    23     7     1   ar
    24    25    16   ar
    25    24    18   ar
    26     9    12    1
    27     9    13    1
@<TRIPOS>MOLECULE
*****
 25 27 0 0 0
SMALL
GASTEIGER

@<TRIPOS>ATOM
      1 C          65.5161   91.8434   12.8906 C.ar    1  UNL1        0.1109
      2 C          65.5589   91.1042   14.1951 C.ar    1  UNL1        0.1468
      3 F          66.7537   91.2351   15.0925 F       1  UNL1       -0.2039
      4 C          64.4069   90.2340   14.6022 C.ar    1  UNL1        0.0331
      5 C          63.2121   90.1030   13.7048 C.ar    1  UNL1        0.0416
      6 C          63.1694   90.8423   12.4002 C.ar    1  UNL1        0.1667
      7 C          64.3214   91.7124   11.9932 C.ar    1  UNL1        0.1803
      8 F          64.2786   92.4516   10.6887 F       1  UNL1       -0.2007
      9 N          66.4515   94.1767   12.2345 N.am    1  UNL1       -0.3252
     10 C          66.6681   92.7135   12.4835 C.2     1  UNL1        0.2472
     11 O          68.0369   92.1204   12.3255 O.2     1  UNL1       -0.2702
     12 H          67.2076   94.7478   11.9673 H       1  UNL1        0.1453
     13 H          65.5532   94.5660   12.3382 H       1  UNL1        0.1453
     14 O          61.9746   90.7113   11.5028 O.3     1  UNL1       -0.4661
     15 C          61.1252   89.4764   11.5603 C.3     1  UNL1        0.2575
     16 C          61.6615   88.1726   11.0480 C.ar    1  UNL1        0.1321
     17 N          62.1030   87.0101   11.8869 N.ar    1  UNL1       -0.2390
     18 C          62.5648   85.9214   10.9641 C.ar    1  UNL1        0.0884
     19 C          63.1073   84.5476   11.2250 C.ar    1  UNL1        0.0310
     20 C          63.4938   83.6633   10.0767 C.ar    1  UNL1        0.0592
     21 CL         64.0363   82.2893   10.3376 Cl      1  UNL1       -0.0822
     22 C          63.3378   84.1529    8.6675 C.ar    1  UNL1        0.0120
     23 C          62.7953   85.5268    8.4066 C.ar    1  UNL1        0.0089
     24 C          62.4089   86.4111    9.5549 C.ar    1  UNL1        0.0483
     25 S          61.8506   87.8024    9.6067 S.2     1  UNL1       -0.0672
@<TRIPOS>BOND
     1     9    10   am
     2    10    11    2
     3    10     1    1
     4     1     2   ar
     5     2     3    1
     6     2     4   ar
     7     4     5   ar
     8     5     6   ar
     9     6    14    1
    10    14    15    1
    11    15    16    1
    12    16    17   ar
    13    17    18   ar
    14    18    19   ar
    15    19    20   ar
    16    20    21    1
    17    20    22   ar
    18    22    23   ar
    19    23    24   ar
    20    24    25   ar
    21     6     7   ar
    22     7     8    1
    23     7     1   ar
    24    25    16   ar
    25    24    18   ar
    26     9    12    1
    27     9    13    1
@<TRIPOS>MOLECULE
*****
 25 27 0 0 0
SMALL
GASTEIGER

@<TRIPOS>ATOM
      1 C          61.5763   86.7453    9.4089 C.ar    1  UNL1        0.1109
      2 C          60.4824   86.7338    8.3826 C.ar    1  UNL1        0.1468
      3 F          60.0982   85.4491    7.7103 F       1  UNL1       -0.2039
      4 C          59.7728   88.0070    8.0286 C.ar    1  UNL1        0.0331
      5 C          60.1570   89.2917    8.7008 C.ar    1  UNL1        0.0416
      6 C          61.2509   89.3031    9.7272 C.ar    1  UNL1        0.1667
      7 C          61.9605   88.0299   10.0812 C.ar    1  UNL1        0.1803
      8 F          63.0543   88.0414   11.1075 F       1  UNL1       -0.2007
      9 N          62.1489   84.8952   11.1408 N.am    1  UNL1       -0.3252
     10 C          62.2859   85.4721    9.7629 C.2     1  UNL1        0.2472
     11 O          63.1325   84.7756    8.7391 O.2     1  UNL1       -0.2702
     12 H          62.6147   84.0596   11.3732 H       1  UNL1        0.1453
     13 H          61.5932   85.3523   11.8128 H       1  UNL1        0.1453
     14 O          61.6351   90.5878   10.3995 O.3     1  UNL1       -0.4661
     15 C          63.0101   91.1545   10.2042 C.3     1  UNL1        0.2575
     16 C          63.8579   91.4930   11.3944 C.ar    1  UNL1        0.1321
     17 N          64.9948   92.4711   11.4176 N.ar    1  UNL1       -0.2390
     18 C          65.5572   92.4954   12.8080 C.ar    1  UNL1        0.0884
     19 C          66.6861   93.2701   13.4207 C.ar    1  UNL1        0.0310
     20 C          67.0255   93.0817   14.8696 C.ar    1  UNL1        0.0592
     21 CL         68.1544   93.8564   15.4823 Cl      1  UNL1       -0.0822
     22 C          66.2361   92.1185   15.7057 C.ar    1  UNL1        0.0120
     23 C          65.1072   91.3438   15.0930 C.ar    1  UNL1        0.0089
     24 C          64.7678   91.5323   13.6442 C.ar    1  UNL1        0.0483
     25 S          63.7176   90.9127   12.7705 S.2     1  UNL1       -0.0672
@<TRIPOS>BOND
     1     9    10   am
     2    10    11    2
     3    10     1    1
     4     1     2   ar
     5     2     3    1
     6     2     4   ar
     7     4     5   ar
     8     5     6   ar
     9     6    14    1
    10    14    15    1
    11    15    16    1
    12    16    17   ar
    13    17    18   ar
    14    18    19   ar
    15    19    20   ar
    16    20    21    1
    17    20    22   ar
    18    22    23   ar
    19    23    24   ar
    20    24    25   ar
    21     6     7   ar
    22     7     8    1
    23     7     1   ar
    24    25    16   ar
    25    24    18   ar
    26     9    12    1
    27     9    13    1
@<TRIPOS>MOLECULE
*****
 25 27 0 0 0
SMALL
GASTEIGER

@<TRIPOS>ATOM
      1 C          60.8416   86.9628    9.1166 C.ar    1  UNL1        0.1109
      2 C          61.5199   86.0995   10.1387 C.ar    1  UNL1        0.1468
      3 F          61.3985   84.6066   10.0589 F       1  UNL1       -0.2039
      4 C          62.3194   86.7292   11.2407 C.ar    1  UNL1        0.0331
      5 C          62.4408   88.2222   11.3205 C.ar    1  UNL1        0.0416
      6 C          61.7625   89.0854   10.2983 C.ar    1  UNL1        0.1667
      7 C          60.9630   88.4558    9.1964 C.ar    1  UNL1        0.1803
      8 F          60.2848   89.3190    8.1743 F       1  UNL1       -0.2007
      9 N          58.5938   86.6842    7.8440 N.am    1  UNL1       -0.3252
     10 C          60.0421   86.3331    8.0147 C.2     1  UNL1        0.2472
     11 O          60.6909   85.3523    7.0834 O.2     1  UNL1       -0.2702
     12 H          58.0690   86.2709    7.1208 H       1  UNL1        0.1453
     13 H          58.1680   87.3279    8.4552 H       1  UNL1        0.1453
     14 O          61.8838   90.5784   10.3781 O.3     1  UNL1       -0.4661
     15 C          63.2255   91.2312   10.2238 C.3     1  UNL1        0.2575
     16 C          64.0363   91.5750   11.4380 C.ar    1  UNL1        0.1321
     17 N          65.2046   92.5148   11.4810 N.ar    1  UNL1       -0.2390
     18 C          65.7115   92.5601   12.8920 C.ar    1  UNL1        0.0884
     19 C          66.8412   93.3138   13.5289 C.ar    1  UNL1        0.0310
     20 C          67.1159   93.1557   14.9950 C.ar    1  UNL1        0.0592
     21 CL         68.2456   93.9094   15.6320 Cl      1  UNL1       -0.0822
     22 C          66.2609   92.2439   15.8242 C.ar    1  UNL1        0.0120
     23 C          65.1312   91.4902   15.1873 C.ar    1  UNL1        0.0089
     24 C          64.8565   91.6483   13.7212 C.ar    1  UNL1        0.0483
     25 S          63.8212   91.0395   12.8226 S.2     1  UNL1       -0.0672
@<TRIPOS>BOND
     1     9    10   am
     2    10    11    2
     3    10     1    1
     4     1     2   ar
     5     2     3    1
     6     2     4   ar
     7     4     5   ar
     8     5     6   ar
     9     6    14    1
    10    14    15    1
    11    15    16    1
    12    16    17   ar
    13    17    18   ar
    14    18    19   ar
    15    19    20   ar
    16    20    21    1
    17    20    22   ar
    18    22    23   ar
    19    23    24   ar
    20    24    25   ar
    21     6     7   ar
    22     7     8    1
    23     7     1   ar
    24    25    16   ar
    25    24    18   ar
    26     9    12    1
    27     9    13    1
@<TRIPOS>MOLECULE
*****
 25 27 0 0 0
SMALL
GASTEIGER

@<TRIPOS>ATOM
      1 C          64.5981   91.4685   13.0229 C.ar    1  UNL1        0.1109
      2 C          65.2603   92.2913   11.9578 C.ar    1  UNL1        0.1468
      3 F          66.4839   93.0954   12.2835 F       1  UNL1       -0.2039
      4 C          64.6990   92.3099   10.5668 C.ar    1  UNL1        0.0331
      5 C          63.4754   91.5058   10.2411 C.ar    1  UNL1        0.0416
      6 C          62.8131   90.6830   11.3063 C.ar    1  UNL1        0.1667
      7 C          63.3745   90.6644   12.6971 C.ar    1  UNL1        0.1803
      8 F          62.7122   89.8416   13.7622 F       1  UNL1       -0.2007
      9 N          66.6245   91.2101   14.6280 N.am    1  UNL1       -0.3252
     10 C          65.1594   91.4499   14.4137 C.2     1  UNL1        0.2472
     11 O          64.2557   91.6712   15.5903 O.2     1  UNL1       -0.2702
     12 H          66.9930   91.1979   15.5409 H       1  UNL1        0.1453
     13 H          67.2177   91.0649   13.8558 H       1  UNL1        0.1453
     14 O          61.5895   89.8788   10.9805 O.3     1  UNL1       -0.4661
     15 C          61.6858   88.7142   10.0402 C.3     1  UNL1        0.2575
     16 C          62.0950   87.3662   10.5553 C.ar    1  UNL1        0.1321
     17 N          62.3734   87.0167   11.9872 N.ar    1  UNL1       -0.2390
     18 C          62.7481   85.5655   12.0458 C.ar    1  UNL1        0.0884
     19 C          63.1259   84.6718   13.1897 C.ar    1  UNL1        0.0310
     20 C          63.4569   83.2307   12.9380 C.ar    1  UNL1        0.0592
     21 CL         63.8347   82.3370   14.0819 Cl      1  UNL1       -0.0822
     22 C          63.4101   82.6831   11.5423 C.ar    1  UNL1        0.0120
     23 C          63.0323   83.5768   10.3983 C.ar    1  UNL1        0.0089
     24 C          62.7014   85.0179   10.6501 C.ar    1  UNL1        0.0483
     25 S          62.2977   86.1308    9.7289 S.2     1  UNL1       -0.0672
@<TRIPOS>BOND
     1     9    10   am
     2    10    11    2
     3    10     1    1
     4     1     2   ar
     5     2     3    1
     6     2     4   ar
     7     4     5   ar
     8     5     6   ar
     9     6    14    1
    10    14    15    1
    11    15    16    1
    12    16    17   ar
    13    17    18   ar
    14    18    19   ar
    15    19    20   ar
    16    20    21    1
    17    20    22   ar
    18    22    23   ar
    19    23    24   ar
    20    24    25   ar
    21     6     7   ar
    22     7     8    1
    23     7     1   ar
    24    25    16   ar
    25    24    18   ar
    26     9    12    1
    27     9    13    1
