@<TRIPOS>MOLECULE
*****
 36 42 0 0 0
SMALL
GASTEIGER

@<TRIPOS>ATOM
      1 O          69.0919   74.0497   17.4124 O.2     1  UNL1       -0.2501
      2 C          69.7418   74.5323   16.1495 C.2     1  UNL1        0.3310
      3 N          69.4734   75.8390   15.4635 N.am    1  UNL1       -0.1647
      4 C          70.3398   75.9071   14.2409 C.2     1  UNL1        0.0706
      5 C          70.5006   76.9573   13.1820 C.3     1  UNL1        0.0708
      6 C          71.4653   76.7429   12.0536 C.2     1  UNL1       -0.0163
      7 C          72.2691   75.4784   11.9839 C.2     1  UNL1       -0.0026
      8 C          72.1083   74.4282   13.0428 C.2     1  UNL1        0.0156
      9 C          71.1436   74.6425   14.1713 C.2     1  UNL1        0.0669
     10 N          70.7740   73.7929   15.3509 N.am    1  UNL1       -0.2409
     11 C          71.6261   77.7930   10.9946 C.2     1  UNL1       -0.0038
     12 C          72.2296   79.1218   11.3415 C.2     1  UNL1        0.0024
     13 C          72.6380   79.2969   12.7742 C.ar    1  UNL1       -0.0004
     14 C          72.3468   78.0667   13.5814 C.ar    1  UNL1       -0.0002
     15 C          72.6801   78.0327   15.0434 C.ar    1  UNL1       -0.0000
     16 C          73.3047   79.2290   15.6983 C.ar    1  UNL1       -0.0002
     17 C          73.5959   80.4593   14.8911 C.ar    1  UNL1       -0.0007
     18 C          73.2625   80.4932   13.4290 C.ar    1  UNL1        0.0212
     19 C          73.6329   81.8098   12.8129 C.3     1  UNL1        0.2320
     20 O          73.4703   82.2552   11.3898 O.3     1  UNL1       -0.4706
     21 C          72.8970   81.4941   10.2314 C.ar    1  UNL1        0.1412
     22 C          72.9194   82.3113    8.9738 C.ar    1  UNL1        0.0665
     23 C          72.3897   81.7341    7.6946 C.ar    1  UNL1        0.1432
     24 F          72.4121   82.5513    6.4370 F       1  UNL1       -0.2041
     25 C          71.8376   80.3396    7.6731 C.ar    1  UNL1        0.0298
     26 C          71.8151   79.5223    8.9307 C.ar    1  UNL1        0.0053
     27 C          72.3448   80.0995   10.2098 C.ar    1  UNL1        0.0341
     28 C          71.3377   72.4412   15.6750 C.3     1  UNL1        0.0987
     29 C          70.9385   71.5737   16.8318 C.3     1  UNL1        0.0402
     30 C          71.7536   70.3160   16.7709 C.3     1  UNL1        0.0891
     31 C          71.7903   69.1002   17.6489 C.3     1  UNL1        0.1581
     32 O          72.7300   67.9747   17.3323 O.3     1  UNL1       -0.3509
     33 C          73.6329   68.0647   16.1379 C.3     1  UNL1        0.1595
     34 C          73.5961   69.2805   15.2600 C.3     1  UNL1        0.1046
     35 N          72.6565   70.4061   15.5766 N.3     1  UNL1       -0.2681
     36 C          72.3995   71.7195   14.8992 C.3     1  UNL1        0.0927
@<TRIPOS>BOND
     1     1     2    2
     2     2     3    1
     3     3     4    2
     4     4     5    1
     5     5     6    1
     6     6    11    1
     7    11    12    2
     8    12    13    1
     9    13    14   ar
    10    14    15   ar
    11    15    16   ar
    12    16    17   ar
    13    17    18   ar
    14    18    19    1
    15    19    20    1
    16    20    21    1
    17    21    22   ar
    18    22    23   ar
    19    23    24    1
    20    23    25   ar
    21    25    26   ar
    22    26    27   ar
    23     6     7    2
    24     7     8    1
    25     8     9    2
    26     9    10    1
    27    28    10    1
    28    28    29    1
    29    30    29    1
    30    30    31    1
    31    31    32    1
    32    32    33    1
    33    33    34    1
    34    34    35    1
    35    35    36    1
    36    10     2   am
    37    36    28    1
    38     9     4    1
    39    35    30    1
    40    27    12    1
    41    18    13   ar
    42    27    21   ar
@<TRIPOS>MOLECULE
*****
 36 42 0 0 0
SMALL
GASTEIGER

@<TRIPOS>ATOM
      1 O          59.9618   90.6940   10.9843 O.2     1  UNL1       -0.2501
      2 C          60.7158   89.3973   11.0006 C.2     1  UNL1        0.3310
      3 N          60.1501   88.0444   10.6851 N.am    1  UNL1       -0.1647
      4 C          61.2525   87.0370   10.8248 C.2     1  UNL1        0.0706
      5 C          61.2819   85.5489   10.6380 C.3     1  UNL1        0.0708
      6 C          62.5585   84.7912   10.8530 C.2     1  UNL1       -0.0163
      7 C          63.8056   85.5214   11.2548 C.2     1  UNL1       -0.0026
      8 C          63.7762   87.0095   11.4416 C.2     1  UNL1        0.0156
      9 C          62.4997   87.7672   11.2266 C.2     1  UNL1        0.0669
     10 N          62.1679   89.2260   11.3352 N.am    1  UNL1       -0.2409
     11 C          62.5880   83.3031   10.6662 C.2     1  UNL1       -0.0038
     12 C          62.6023   82.3972   11.8617 C.2     1  UNL1        0.0024
     13 C          62.5853   83.0811   13.1966 C.ar    1  UNL1       -0.0004
     14 C          62.5567   84.5734   13.0476 C.ar    1  UNL1       -0.0002
     15 C          62.5363   85.4485   14.2657 C.ar    1  UNL1       -0.0000
     16 C          62.5445   84.8313   15.6328 C.ar    1  UNL1       -0.0002
     17 C          62.5732   83.3390   15.7818 C.ar    1  UNL1       -0.0007
     18 C          62.5936   82.4640   14.5638 C.ar    1  UNL1        0.0212
     19 C          62.6209   81.0105   14.9335 C.3     1  UNL1        0.2320
     20 O          62.6467   79.8152   14.0276 O.3     1  UNL1       -0.4706
     21 C          62.6515   79.7783   12.5281 C.ar    1  UNL1        0.1412
     22 C          62.6804   78.3691   12.0148 C.ar    1  UNL1        0.0665
     23 C          62.6895   78.1091   10.5374 C.ar    1  UNL1        0.1432
     24 F          62.7184   76.7000   10.0241 F       1  UNL1       -0.2041
     25 C          62.6698   79.2582    9.5736 C.ar    1  UNL1        0.0298
     26 C          62.6409   80.6673   10.0869 C.ar    1  UNL1        0.0053
     27 C          62.6318   80.9274   11.5641 C.ar    1  UNL1        0.0341
     28 C          63.1209   90.3212   11.7123 C.3     1  UNL1        0.0987
     29 C          63.6558   91.3796   10.7938 C.3     1  UNL1        0.0402
     30 C          64.5719   92.2628   11.5880 C.3     1  UNL1        0.0891
     31 C          65.3816   93.4676   11.2099 C.3     1  UNL1        0.1581
     32 O          66.2226   94.1598   12.2412 O.3     1  UNL1       -0.3509
     33 C          66.2539   93.6473   13.6506 C.3     1  UNL1        0.1595
     34 C          65.4441   92.4426   14.0286 C.3     1  UNL1        0.1046
     35 N          64.6032   91.7504   12.9973 N.3     1  UNL1       -0.2681
     36 C          63.7064   90.5503   13.0743 C.3     1  UNL1        0.0927
@<TRIPOS>BOND
     1     1     2    2
     2     2     3    1
     3     3     4    2
     4     4     5    1
     5     5     6    1
     6     6    11    1
     7    11    12    2
     8    12    13    1
     9    13    14   ar
    10    14    15   ar
    11    15    16   ar
    12    16    17   ar
    13    17    18   ar
    14    18    19    1
    15    19    20    1
    16    20    21    1
    17    21    22   ar
    18    22    23   ar
    19    23    24    1
    20    23    25   ar
    21    25    26   ar
    22    26    27   ar
    23     6     7    2
    24     7     8    1
    25     8     9    2
    26     9    10    1
    27    28    10    1
    28    28    29    1
    29    30    29    1
    30    30    31    1
    31    31    32    1
    32    32    33    1
    33    33    34    1
    34    34    35    1
    35    35    36    1
    36    10     2   am
    37    36    28    1
    38     9     4    1
    39    35    30    1
    40    27    12    1
    41    18    13   ar
    42    27    21   ar
