@<TRIPOS>MOLECULE
*****
 31 34 0 0 0
SMALL
GASTEIGER

@<TRIPOS>ATOM
      1 C          61.9535   88.9573   11.1321 C.2     1  UNL1        0.2495
      2 O          60.8654   89.4533   10.2267 O.2     1  UNL1       -0.2699
      3 N          62.0668   87.4929   11.4363 N.am    1  UNL1       -0.2679
      4 N          66.2967   92.7951   16.4266 N.pl3   1  UNL1       -0.3375
      5 C          65.5938   92.2369   15.2249 C.ar    1  UNL1        0.1567
      6 N          65.7731   92.6935   13.8074 N.ar    1  UNL1       -0.2245
      7 C          64.8782   91.8628   12.9360 C.ar    1  UNL1        0.0892
      8 C          64.6357   91.8644   11.4558 C.ar    1  UNL1        0.0198
      9 C          63.6608   90.8960   10.8545 C.ar    1  UNL1        0.0061
     10 C          62.9285   89.9259   11.7335 C.ar    1  UNL1        0.0542
     11 C          63.1710   89.9243   13.2137 C.ar    1  UNL1        0.0126
     12 C          64.1459   90.8928   13.8150 C.ar    1  UNL1        0.0498
     13 S          64.5881   91.1239   15.2295 S.2     1  UNL1       -0.0520
     14 H          66.9436   93.5297   16.3214 H       1  UNL1        0.1442
     15 H          66.1111   92.4269   17.3206 H       1  UNL1        0.1442
     16 C          61.0918   86.5244   10.8350 C.3     1  UNL1        0.1208
     17 C          61.2885   86.0372    9.4300 C.ar    1  UNL1       -0.0023
     18 C          60.1567   86.1039    8.4477 C.ar    1  UNL1       -0.0026
     19 C          60.3533   85.6167    7.0427 C.ar    1  UNL1       -0.0003
     20 C          61.6817   85.0629    6.6200 C.ar    1  UNL1       -0.0000
     21 C          62.8134   84.9963    7.6022 C.ar    1  UNL1       -0.0003
     22 C          62.6168   85.4834    9.0072 C.ar    1  UNL1       -0.0026
     23 C          63.1549   86.9969   12.3418 C.3     1  UNL1        0.1208
     24 C          63.2324   85.5407   12.6935 C.ar    1  UNL1       -0.0014
     25 C          62.9022   85.0866   14.0844 C.ar    1  UNL1       -0.0017
     26 C          62.9796   83.6305   14.4361 C.ar    1  UNL1        0.0120
     27 C          63.3872   82.6285   13.3969 C.ar    1  UNL1        0.0682
     28 CL         63.4646   81.1724   13.7486 Cl      1  UNL1       -0.0814
     29 C          63.7174   83.0827   12.0060 C.ar    1  UNL1        0.0679
     30 CL         64.1250   82.0808   10.9667 Cl      1  UNL1       -0.0814
     31 C          63.6400   84.5388   11.6543 C.ar    1  UNL1        0.0096
@<TRIPOS>BOND
     1     4     5    1
     2     5     6   ar
     3     6     7   ar
     4     7     8   ar
     5     8     9   ar
     6     9    10   ar
     7    10     1    1
     8     1     2    2
     9     1     3   am
    10     3    16    1
    11    16    17    1
    12    17    18   ar
    13    18    19   ar
    14    19    20   ar
    15    20    21   ar
    16    21    22   ar
    17     3    23    1
    18    23    24    1
    19    24    25   ar
    20    25    26   ar
    21    26    27   ar
    22    27    28    1
    23    27    29   ar
    24    29    30    1
    25    29    31   ar
    26    10    11   ar
    27    11    12   ar
    28    12    13   ar
    29    13     5   ar
    30    12     7   ar
    31    22    17   ar
    32    31    24   ar
    33     4    14    1
    34     4    15    1
@<TRIPOS>MOLECULE
*****
 31 34 0 0 0
SMALL
GASTEIGER

@<TRIPOS>ATOM
      1 C          62.1211   88.5480   11.6557 C.2     1  UNL1        0.2495
      2 O          61.0715   89.3100   10.9023 O.2     1  UNL1       -0.2699
      3 N          62.1411   87.0490   11.6049 N.am    1  UNL1       -0.2679
      4 N          67.2309   94.0682   13.9007 N.pl3   1  UNL1       -0.3375
      5 C          66.3349   92.8798   13.7138 C.ar    1  UNL1        0.1567
      6 N          66.2184   91.7085   14.6436 N.ar    1  UNL1       -0.2245
      7 C          65.2096   90.7589   14.0688 C.ar    1  UNL1        0.0892
      8 C          64.6872   89.4376   14.5495 C.ar    1  UNL1        0.0198
      9 C          63.6577   88.7006   13.7452 C.ar    1  UNL1        0.0061
     10 C          63.1506   89.2850   12.4601 C.ar    1  UNL1        0.0542
     11 C          63.6730   90.6063   11.9794 C.ar    1  UNL1        0.0126
     12 C          64.7025   91.3433   12.7837 C.ar    1  UNL1        0.0498
     13 S          65.3980   92.6541   12.5644 S.2     1  UNL1       -0.0520
     14 H          67.8132   94.1260   14.6924 H       1  UNL1        0.1442
     15 H          67.2368   94.7903   13.2316 H       1  UNL1        0.1442
     16 C          61.1116   86.3120   10.8005 C.3     1  UNL1        0.1208
     17 C          61.4268   85.8721    9.4015 C.ar    1  UNL1       -0.0023
     18 C          60.3764   85.9569    8.3340 C.ar    1  UNL1       -0.0026
     19 C          60.6916   85.5169    6.9351 C.ar    1  UNL1       -0.0003
     20 C          62.0572   84.9922    6.6036 C.ar    1  UNL1       -0.0000
     21 C          63.1075   84.9073    7.6711 C.ar    1  UNL1       -0.0003
     22 C          62.7923   85.3473    9.0701 C.ar    1  UNL1       -0.0026
     23 C          63.1907   86.2870   12.3583 C.3     1  UNL1        0.1208
     24 C          62.9373   84.8663   12.7676 C.ar    1  UNL1       -0.0014
     25 C          62.5192   84.5541   14.1738 C.ar    1  UNL1       -0.0017
     26 C          62.2658   83.1334   14.5830 C.ar    1  UNL1        0.0120
     27 C          62.4305   82.0250   13.5859 C.ar    1  UNL1        0.0682
     28 CL         62.1770   80.6042   13.9952 Cl      1  UNL1       -0.0814
     29 C          62.8485   82.3372   12.1796 C.ar    1  UNL1        0.0679
     30 CL         63.0132   81.2287   11.1825 Cl      1  UNL1       -0.0814
     31 C          63.1019   83.7578   11.7705 C.ar    1  UNL1        0.0096
@<TRIPOS>BOND
     1     4     5    1
     2     5     6   ar
     3     6     7   ar
     4     7     8   ar
     5     8     9   ar
     6     9    10   ar
     7    10     1    1
     8     1     2    2
     9     1     3   am
    10     3    16    1
    11    16    17    1
    12    17    18   ar
    13    18    19   ar
    14    19    20   ar
    15    20    21   ar
    16    21    22   ar
    17     3    23    1
    18    23    24    1
    19    24    25   ar
    20    25    26   ar
    21    26    27   ar
    22    27    28    1
    23    27    29   ar
    24    29    30    1
    25    29    31   ar
    26    10    11   ar
    27    11    12   ar
    28    12    13   ar
    29    13     5   ar
    30    12     7   ar
    31    22    17   ar
    32    31    24   ar
    33     4    14    1
    34     4    15    1
@<TRIPOS>MOLECULE
*****
 31 34 0 0 0
SMALL
GASTEIGER

@<TRIPOS>ATOM
      1 C          65.6518   91.8195   13.6979 C.2     1  UNL1        0.2495
      2 O          66.4165   91.6143   14.9719 O.2     1  UNL1       -0.2699
      3 N          64.2030   91.4384   13.6231 N.am    1  UNL1       -0.2679
      4 N          67.6580   96.8546    8.0193 N.pl3   1  UNL1       -0.3375
      5 C          67.4707   95.7202    8.9827 C.ar    1  UNL1        0.1567
      6 N          68.2051   94.4125    8.9585 N.ar    1  UNL1       -0.2245
      7 C          67.7044   93.5784   10.1002 C.ar    1  UNL1        0.0892
      8 C          68.0641   92.2000   10.5696 C.ar    1  UNL1        0.0198
      9 C          67.3800   91.6137   11.7688 C.ar    1  UNL1        0.0061
     10 C          66.3360   92.4058   12.4986 C.ar    1  UNL1        0.0542
     11 C          65.9763   93.7843   12.0293 C.ar    1  UNL1        0.0126
     12 C          66.6604   94.3706   10.8301 C.ar    1  UNL1        0.0498
     13 S          66.5160   95.6943   10.1394 S.2     1  UNL1       -0.0520
     14 H          68.3128   96.7766    7.2883 H       1  UNL1        0.1442
     15 H          67.1261   97.6771    8.1180 H       1  UNL1        0.1442
     16 C          63.5188   90.8520   14.8223 C.3     1  UNL1        0.1208
     17 C          63.6658   89.3913   15.1301 C.ar    1  UNL1       -0.0023
     18 C          64.3147   88.4765   14.1339 C.ar    1  UNL1       -0.0026
     19 C          64.4617   87.0158   14.4416 C.ar    1  UNL1       -0.0003
     20 C          63.9598   86.4699   15.7456 C.ar    1  UNL1       -0.0000
     21 C          63.3110   87.3846   16.7417 C.ar    1  UNL1       -0.0003
     22 C          63.1640   88.8453   16.4339 C.ar    1  UNL1       -0.0026
     23 C          63.4383   91.6436   12.3491 C.3     1  UNL1        0.1208
     24 C          62.6131   90.5269   11.7815 C.ar    1  UNL1       -0.0014
     25 C          63.1747   89.6552   10.6977 C.ar    1  UNL1       -0.0017
     26 C          62.3495   88.5386   10.1302 C.ar    1  UNL1        0.0120
     27 C          60.9626   88.2937   10.6465 C.ar    1  UNL1        0.0682
     28 CL         60.1373   87.1770   10.0789 Cl      1  UNL1       -0.0814
     29 C          60.4009   89.1654   11.7302 C.ar    1  UNL1        0.0679
     30 CL         59.0140   88.9205   12.2465 Cl      1  UNL1       -0.0814
     31 C          61.2262   90.2820   12.2977 C.ar    1  UNL1        0.0096
@<TRIPOS>BOND
     1     4     5    1
     2     5     6   ar
     3     6     7   ar
     4     7     8   ar
     5     8     9   ar
     6     9    10   ar
     7    10     1    1
     8     1     2    2
     9     1     3   am
    10     3    16    1
    11    16    17    1
    12    17    18   ar
    13    18    19   ar
    14    19    20   ar
    15    20    21   ar
    16    21    22   ar
    17     3    23    1
    18    23    24    1
    19    24    25   ar
    20    25    26   ar
    21    26    27   ar
    22    27    28    1
    23    27    29   ar
    24    29    30    1
    25    29    31   ar
    26    10    11   ar
    27    11    12   ar
    28    12    13   ar
    29    13     5   ar
    30    12     7   ar
    31    22    17   ar
    32    31    24   ar
    33     4    14    1
    34     4    15    1
@<TRIPOS>MOLECULE
*****
 31 34 0 0 0
SMALL
GASTEIGER

@<TRIPOS>ATOM
      1 C          61.9743   89.9384   11.3748 C.2     1  UNL1        0.2495
      2 O          60.6768   90.5663   10.9599 O.2     1  UNL1       -0.2699
      3 N          62.0790   88.4476   11.5029 N.am    1  UNL1       -0.2679
      4 N          67.8168   93.4804   15.2406 N.pl3   1  UNL1       -0.3375
      5 C          66.8015   92.9470   14.2736 C.ar    1  UNL1        0.1567
      6 N          66.7123   93.2826   12.8144 N.ar    1  UNL1       -0.2245
      7 C          65.5530   92.5275   12.2351 C.ar    1  UNL1        0.0892
      8 C          64.9875   92.4668   10.8471 C.ar    1  UNL1        0.0198
      9 C          63.7946   91.6038   10.5604 C.ar    1  UNL1        0.0061
     10 C          63.1673   90.8015   11.6616 C.ar    1  UNL1        0.0542
     11 C          63.7327   90.8622   13.0496 C.ar    1  UNL1        0.0126
     12 C          64.9256   91.7252   13.3363 C.ar    1  UNL1        0.0498
     13 S          65.6973   91.9845   14.5962 S.2     1  UNL1       -0.0520
     14 H          68.5065   94.1114   14.9319 H       1  UNL1        0.1442
     15 H          67.7933   93.1993   16.1838 H       1  UNL1        0.1442
     16 C          60.8861   87.5846   11.2161 C.3     1  UNL1        0.1208
     17 C          60.6986   86.9942    9.8500 C.ar    1  UNL1       -0.0023
     18 C          59.4246   87.2373    9.0963 C.ar    1  UNL1       -0.0026
     19 C          59.2371   86.6470    7.7302 C.ar    1  UNL1       -0.0003
     20 C          60.3236   85.8135    7.1177 C.ar    1  UNL1       -0.0000
     21 C          61.5974   85.5704    7.8714 C.ar    1  UNL1       -0.0003
     22 C          61.7850   86.1608    9.2375 C.ar    1  UNL1       -0.0026
     23 C          63.3766   87.8197   11.9178 C.3     1  UNL1        0.1208
     24 C          63.3738   86.5860   12.7711 C.ar    1  UNL1       -0.0014
     25 C          63.8492   86.6557   14.1920 C.ar    1  UNL1       -0.0017
     26 C          63.8464   85.4220   15.0451 C.ar    1  UNL1        0.0120
     27 C          63.3681   84.1185   14.4773 C.ar    1  UNL1        0.0682
     28 CL         63.3653   82.8848   15.3305 Cl      1  UNL1       -0.0814
     29 C          62.8926   84.0489   13.0564 C.ar    1  UNL1        0.0679
     30 CL         62.4143   82.7455   12.4886 Cl      1  UNL1       -0.0814
     31 C          62.8955   85.2826   12.2033 C.ar    1  UNL1        0.0096
@<TRIPOS>BOND
     1     4     5    1
     2     5     6   ar
     3     6     7   ar
     4     7     8   ar
     5     8     9   ar
     6     9    10   ar
     7    10     1    1
     8     1     2    2
     9     1     3   am
    10     3    16    1
    11    16    17    1
    12    17    18   ar
    13    18    19   ar
    14    19    20   ar
    15    20    21   ar
    16    21    22   ar
    17     3    23    1
    18    23    24    1
    19    24    25   ar
    20    25    26   ar
    21    26    27   ar
    22    27    28    1
    23    27    29   ar
    24    29    30    1
    25    29    31   ar
    26    10    11   ar
    27    11    12   ar
    28    12    13   ar
    29    13     5   ar
    30    12     7   ar
    31    22    17   ar
    32    31    24   ar
    33     4    14    1
    34     4    15    1
@<TRIPOS>MOLECULE
*****
 31 34 0 0 0
SMALL
GASTEIGER

@<TRIPOS>ATOM
      1 C          63.6478   89.2064   15.9125 C.2     1  UNL1        0.2495
      2 O          63.4747   90.0338   17.1517 O.2     1  UNL1       -0.2699
      3 N          64.0783   89.8562   14.6310 N.am    1  UNL1       -0.2679
      4 N          63.9255   81.5685   14.1212 N.pl3   1  UNL1       -0.3375
      5 C          63.6927   82.9441   14.6723 C.ar    1  UNL1        0.1567
      6 N          62.8134   83.2901   15.8371 N.ar    1  UNL1       -0.2245
      7 C          62.8756   84.7750   16.0400 C.ar    1  UNL1        0.0892
      8 C          62.2151   85.6804   17.0370 C.ar    1  UNL1        0.0198
      9 C          62.4725   87.1575   16.9945 C.ar    1  UNL1        0.0061
     10 C          63.3904   87.7292   15.9550 C.ar    1  UNL1        0.0542
     11 C          64.0509   86.8239   14.9580 C.ar    1  UNL1        0.0126
     12 C          63.7935   85.3468   15.0005 C.ar    1  UNL1        0.0498
     13 S          64.2985   84.2152   14.1552 S.2     1  UNL1       -0.0520
     14 H          63.4801   80.7921   14.5312 H       1  UNL1        0.1442
     15 H          64.5236   81.4421   13.3495 H       1  UNL1        0.1442
     16 C          64.3357   91.3334   14.5885 C.3     1  UNL1        0.1208
     17 C          65.7307   91.8568   14.7611 C.ar    1  UNL1       -0.0023
     18 C          66.1201   92.5485   16.0339 C.ar    1  UNL1       -0.0026
     19 C          67.5152   93.0720   16.2065 C.ar    1  UNL1       -0.0003
     20 C          68.5209   92.9038   15.1063 C.ar    1  UNL1       -0.0000
     21 C          68.1315   92.2121   13.8336 C.ar    1  UNL1       -0.0003
     22 C          66.7364   91.6886   13.6610 C.ar    1  UNL1       -0.0026
     23 C          64.2514   89.0288   13.3918 C.3     1  UNL1        0.1208
     24 C          63.2376   89.1085   12.2891 C.ar    1  UNL1       -0.0014
     25 C          62.8742   90.4388   11.6991 C.ar    1  UNL1       -0.0017
     26 C          61.8604   90.5184   10.5964 C.ar    1  UNL1        0.0120
     27 C          61.2100   89.2677   10.0838 C.ar    1  UNL1        0.0682
     28 CL         60.1962   89.3473    8.9811 Cl      1  UNL1       -0.0814
     29 C          61.5734   87.9374   10.6739 C.ar    1  UNL1        0.0679
     30 CL         60.9230   86.6867   10.1613 Cl      1  UNL1       -0.0814
     31 C          62.5872   87.8578   11.7765 C.ar    1  UNL1        0.0096
@<TRIPOS>BOND
     1     4     5    1
     2     5     6   ar
     3     6     7   ar
     4     7     8   ar
     5     8     9   ar
     6     9    10   ar
     7    10     1    1
     8     1     2    2
     9     1     3   am
    10     3    16    1
    11    16    17    1
    12    17    18   ar
    13    18    19   ar
    14    19    20   ar
    15    20    21   ar
    16    21    22   ar
    17     3    23    1
    18    23    24    1
    19    24    25   ar
    20    25    26   ar
    21    26    27   ar
    22    27    28    1
    23    27    29   ar
    24    29    30    1
    25    29    31   ar
    26    10    11   ar
    27    11    12   ar
    28    12    13   ar
    29    13     5   ar
    30    12     7   ar
    31    22    17   ar
    32    31    24   ar
    33     4    14    1
    34     4    15    1
@<TRIPOS>MOLECULE
*****
 31 34 0 0 0
SMALL
GASTEIGER

@<TRIPOS>ATOM
      1 C          64.9770   91.3975   14.7350 C.2     1  UNL1        0.2495
      2 O          64.8394   92.2438   15.9658 O.2     1  UNL1       -0.2699
      3 N          64.2375   90.0965   14.6329 N.am    1  UNL1       -0.2679
      4 N          67.3244   94.8316    8.0777 N.pl3   1  UNL1       -0.3375
      5 C          67.1502   94.0902    9.3699 C.ar    1  UNL1        0.1567
      6 N          68.2227   93.3512   10.1140 N.ar    1  UNL1       -0.2245
      7 C          67.6082   92.7618   11.3489 C.ar    1  UNL1        0.0892
      8 C          68.1834   91.9323   12.4584 C.ar    1  UNL1        0.0198
      9 C          67.3064   91.4776   13.5870 C.ar    1  UNL1        0.0061
     10 C          65.8541   91.8523   13.6062 C.ar    1  UNL1        0.0542
     11 C          65.2788   92.6818   12.4967 C.ar    1  UNL1        0.0126
     12 C          66.1559   93.1365   11.3681 C.ar    1  UNL1        0.0498
     13 S          65.8728   93.9575   10.1450 S.2     1  UNL1       -0.0520
     14 H          68.2071   94.8620    7.6427 H       1  UNL1        0.1442
     15 H          66.5561   95.2880    7.6645 H       1  UNL1        0.1442
     16 C          63.3605   89.6417   15.7616 C.3     1  UNL1        0.1208
     17 C          63.3669   88.2022   16.1833 C.ar    1  UNL1       -0.0023
     18 C          62.6432   87.7822   17.4283 C.ar    1  UNL1       -0.0026
     19 C          62.6497   86.3427   17.8500 C.ar    1  UNL1       -0.0003
     20 C          63.3798   85.3232   17.0268 C.ar    1  UNL1       -0.0000
     21 C          64.1035   85.7433   15.7819 C.ar    1  UNL1       -0.0003
     22 C          64.0970   87.1828   15.3602 C.ar    1  UNL1       -0.0026
     23 C          64.3751   89.2502   13.4021 C.3     1  UNL1        0.1208
     24 C          63.1719   88.9560   12.5559 C.ar    1  UNL1       -0.0014
     25 C          63.0099   87.6040   11.9269 C.ar    1  UNL1       -0.0017
     26 C          61.8068   87.3098   11.0807 C.ar    1  UNL1        0.0120
     27 C          60.7657   88.3677   10.8636 C.ar    1  UNL1        0.0682
     28 CL         59.5626   88.0734   10.0174 Cl      1  UNL1       -0.0814
     29 C          60.9278   89.7197   11.4927 C.ar    1  UNL1        0.0679
     30 CL         59.8867   90.7775   11.2756 Cl      1  UNL1       -0.0814
     31 C          62.1309   90.0138   12.3388 C.ar    1  UNL1        0.0096
@<TRIPOS>BOND
     1     4     5    1
     2     5     6   ar
     3     6     7   ar
     4     7     8   ar
     5     8     9   ar
     6     9    10   ar
     7    10     1    1
     8     1     2    2
     9     1     3   am
    10     3    16    1
    11    16    17    1
    12    17    18   ar
    13    18    19   ar
    14    19    20   ar
    15    20    21   ar
    16    21    22   ar
    17     3    23    1
    18    23    24    1
    19    24    25   ar
    20    25    26   ar
    21    26    27   ar
    22    27    28    1
    23    27    29   ar
    24    29    30    1
    25    29    31   ar
    26    10    11   ar
    27    11    12   ar
    28    12    13   ar
    29    13     5   ar
    30    12     7   ar
    31    22    17   ar
    32    31    24   ar
    33     4    14    1
    34     4    15    1
@<TRIPOS>MOLECULE
*****
 31 34 0 0 0
SMALL
GASTEIGER

@<TRIPOS>ATOM
      1 C          63.8071   91.0662   13.2646 C.2     1  UNL1        0.2495
      2 O          63.4376   91.1910   14.7130 O.2     1  UNL1       -0.2699
      3 N          64.8047   92.0098   12.6610 N.am    1  UNL1       -0.2679
      4 N          59.4222   87.5626    7.7763 N.pl3   1  UNL1       -0.3375
      5 C          60.3411   87.9640    8.8919 C.ar    1  UNL1        0.1567
      6 N          61.1524   87.0335    9.7440 N.ar    1  UNL1       -0.2245
      7 C          61.9227   87.8607   10.7300 C.ar    1  UNL1        0.0892
      8 C          62.8861   87.4874   11.8174 C.ar    1  UNL1        0.0198
      9 C          63.5142   88.5559   12.6623 C.ar    1  UNL1        0.0061
     10 C          63.1789   89.9977   12.4197 C.ar    1  UNL1        0.0542
     11 C          62.2156   90.3710   11.3322 C.ar    1  UNL1        0.0126
     12 C          61.5875   89.3025   10.4874 C.ar    1  UNL1        0.0498
     13 S          60.6100   89.3663    9.3514 S.2     1  UNL1       -0.0520
     14 H          59.3112   86.6114    7.5481 H       1  UNL1        0.1442
     15 H          58.9301   88.2504    7.2723 H       1  UNL1        0.1442
     16 C          65.4329   93.0783   13.5059 C.3     1  UNL1        0.1208
     17 C          66.6538   92.7692   14.3207 C.ar    1  UNL1       -0.0023
     18 C          67.9361   92.3952   13.6380 C.ar    1  UNL1       -0.0026
     19 C          69.1570   92.0861   14.4528 C.ar    1  UNL1       -0.0003
     20 C          69.0956   92.1509   15.9502 C.ar    1  UNL1       -0.0000
     21 C          67.8134   92.5249   16.6327 C.ar    1  UNL1       -0.0003
     22 C          66.5925   92.8340   15.8180 C.ar    1  UNL1       -0.0026
     23 C          65.1742   91.8850   11.2126 C.3     1  UNL1        0.1208
     24 C          65.8768   93.0137   10.5179 C.ar    1  UNL1       -0.0014
     25 C          67.2182   92.7867    9.8863 C.ar    1  UNL1       -0.0017
     26 C          67.9207   93.9154    9.1916 C.ar    1  UNL1        0.0120
     27 C          67.2817   95.2710    9.1285 C.ar    1  UNL1        0.0682
     28 CL         67.9842   96.3997    8.4337 Cl      1  UNL1       -0.0814
     29 C          65.9402   95.4979    9.7600 C.ar    1  UNL1        0.0679
     30 CL         65.3012   96.8536    9.6969 Cl      1  UNL1       -0.0814
     31 C          65.2378   94.3693   10.4547 C.ar    1  UNL1        0.0096
@<TRIPOS>BOND
     1     4     5    1
     2     5     6   ar
     3     6     7   ar
     4     7     8   ar
     5     8     9   ar
     6     9    10   ar
     7    10     1    1
     8     1     2    2
     9     1     3   am
    10     3    16    1
    11    16    17    1
    12    17    18   ar
    13    18    19   ar
    14    19    20   ar
    15    20    21   ar
    16    21    22   ar
    17     3    23    1
    18    23    24    1
    19    24    25   ar
    20    25    26   ar
    21    26    27   ar
    22    27    28    1
    23    27    29   ar
    24    29    30    1
    25    29    31   ar
    26    10    11   ar
    27    11    12   ar
    28    12    13   ar
    29    13     5   ar
    30    12     7   ar
    31    22    17   ar
    32    31    24   ar
    33     4    14    1
    34     4    15    1
@<TRIPOS>MOLECULE
*****
 31 34 0 0 0
SMALL
GASTEIGER

@<TRIPOS>ATOM
      1 C          63.0907   86.9998   12.2005 C.2     1  UNL1        0.2495
      2 O          63.6333   85.7036   12.7253 O.2     1  UNL1       -0.2699
      3 N          63.4342   88.2891   12.8860 N.am    1  UNL1       -0.2679
      4 N          58.5203   89.5765    6.3614 N.pl3   1  UNL1       -0.3375
      5 C          59.3422   88.8238    7.3654 C.ar    1  UNL1        0.1567
      6 N          59.5433   87.3379    7.4040 N.ar    1  UNL1       -0.2245
      7 C          60.4327   87.0206    8.5695 C.ar    1  UNL1        0.0892
      8 C          60.9702   85.7238    9.0981 C.ar    1  UNL1        0.0198
      9 C          61.8562   85.7169   10.3084 C.ar    1  UNL1        0.0061
     10 C          62.2047   87.0068   10.9901 C.ar    1  UNL1        0.0542
     11 C          61.6672   88.3036   10.4615 C.ar    1  UNL1        0.0126
     12 C          60.7812   88.3104    9.2512 C.ar    1  UNL1        0.0498
     13 S          60.1072   89.4249    8.5070 S.2     1  UNL1       -0.0520
     14 H          58.0525   89.0903    5.6444 H       1  UNL1        0.1442
     15 H          58.4486   90.5567    6.4194 H       1  UNL1        0.1442
     16 C          64.3202   88.2821   14.0963 C.3     1  UNL1        0.1208
     17 C          63.8229   87.7007   15.3865 C.ar    1  UNL1       -0.0023
     18 C          63.9200   86.2238   15.6305 C.ar    1  UNL1       -0.0026
     19 C          63.4227   85.6425   16.9207 C.ar    1  UNL1       -0.0003
     20 C          62.8282   86.5380   17.9670 C.ar    1  UNL1       -0.0000
     21 C          62.7310   88.0148   17.7230 C.ar    1  UNL1       -0.0003
     22 C          63.2284   88.5962   16.4328 C.ar    1  UNL1       -0.0026
     23 C          62.8916   89.5853   12.3611 C.3     1  UNL1        0.1208
     24 C          63.8078   90.7563   12.1627 C.ar    1  UNL1       -0.0014
     25 C          63.9219   91.3990   10.8122 C.ar    1  UNL1       -0.0017
     26 C          64.8380   92.5700   10.6139 C.ar    1  UNL1        0.0120
     27 C          65.6400   93.0984   11.7660 C.ar    1  UNL1        0.0682
     28 CL         66.5562   94.2694   11.5676 Cl      1  UNL1       -0.0814
     29 C          65.5260   92.4557   13.1166 C.ar    1  UNL1        0.0679
     30 CL         66.3280   92.9841   14.2687 Cl      1  UNL1       -0.0814
     31 C          64.6098   91.2847   13.3149 C.ar    1  UNL1        0.0096
@<TRIPOS>BOND
     1     4     5    1
     2     5     6   ar
     3     6     7   ar
     4     7     8   ar
     5     8     9   ar
     6     9    10   ar
     7    10     1    1
     8     1     2    2
     9     1     3   am
    10     3    16    1
    11    16    17    1
    12    17    18   ar
    13    18    19   ar
    14    19    20   ar
    15    20    21   ar
    16    21    22   ar
    17     3    23    1
    18    23    24    1
    19    24    25   ar
    20    25    26   ar
    21    26    27   ar
    22    27    28    1
    23    27    29   ar
    24    29    30    1
    25    29    31   ar
    26    10    11   ar
    27    11    12   ar
    28    12    13   ar
    29    13     5   ar
    30    12     7   ar
    31    22    17   ar
    32    31    24   ar
    33     4    14    1
    34     4    15    1
@<TRIPOS>MOLECULE
*****
 31 34 0 0 0
SMALL
GASTEIGER

@<TRIPOS>ATOM
      1 C          64.4014   89.3194   14.5685 C.2     1  UNL1        0.2495
      2 O          65.7581   89.8908   14.8564 O.2     1  UNL1       -0.2699
      3 N          63.3530   90.1695   13.9143 N.am    1  UNL1       -0.2679
      4 N          63.6521   81.5210   14.0716 N.pl3   1  UNL1       -0.3375
      5 C          63.6911   82.9764   14.4328 C.ar    1  UNL1        0.1567
      6 N          63.2701   83.5710   15.7439 N.ar    1  UNL1       -0.2245
      7 C          63.4768   85.0548   15.6676 C.ar    1  UNL1        0.0892
      8 C          63.2362   86.1540   16.6595 C.ar    1  UNL1        0.0198
      9 C          63.5444   87.5755   16.2931 C.ar    1  UNL1        0.0061
     10 C          64.0932   87.8978   14.9348 C.ar    1  UNL1        0.0542
     11 C          64.3338   86.7986   13.9430 C.ar    1  UNL1        0.0126
     12 C          64.0256   85.3771   14.3094 C.ar    1  UNL1        0.0498
     13 S          64.1581   84.0926   13.5462 S.2     1  UNL1       -0.0520
     14 H          63.3273   80.8602   14.7252 H       1  UNL1        0.1442
     15 H          63.9512   81.2266   13.1811 H       1  UNL1        0.1442
     16 C          63.6612   91.5911   13.5479 C.3     1  UNL1        0.1208
     17 C          64.7817   91.8947   12.5980 C.ar    1  UNL1       -0.0023
     18 C          64.5187   91.9543   11.1224 C.ar    1  UNL1       -0.0026
     19 C          65.6392   92.2579   10.1726 C.ar    1  UNL1       -0.0003
     20 C          67.0228   92.5020   10.6983 C.ar    1  UNL1       -0.0000
     21 C          67.2857   92.4424   12.1739 C.ar    1  UNL1       -0.0003
     22 C          66.1652   92.1387   13.1237 C.ar    1  UNL1       -0.0026
     23 C          61.9963   89.5981   13.6264 C.3     1  UNL1        0.1208
     24 C          61.5379   89.4323   12.2077 C.ar    1  UNL1       -0.0014
     25 C          60.5066   90.3613   11.6394 C.ar    1  UNL1       -0.0017
     26 C          60.0483   90.1955   10.2208 C.ar    1  UNL1        0.0120
     27 C          60.6213   89.1006    9.3706 C.ar    1  UNL1        0.0682
     28 CL         60.1629   88.9348    7.9519 Cl      1  UNL1       -0.0814
     29 C          61.6526   88.1715    9.9390 C.ar    1  UNL1        0.0679
     30 CL         62.2257   87.0766    9.0888 Cl      1  UNL1       -0.0814
     31 C          62.1110   88.3374   11.3576 C.ar    1  UNL1        0.0096
@<TRIPOS>BOND
     1     4     5    1
     2     5     6   ar
     3     6     7   ar
     4     7     8   ar
     5     8     9   ar
     6     9    10   ar
     7    10     1    1
     8     1     2    2
     9     1     3   am
    10     3    16    1
    11    16    17    1
    12    17    18   ar
    13    18    19   ar
    14    19    20   ar
    15    20    21   ar
    16    21    22   ar
    17     3    23    1
    18    23    24    1
    19    24    25   ar
    20    25    26   ar
    21    26    27   ar
    22    27    28    1
    23    27    29   ar
    24    29    30    1
    25    29    31   ar
    26    10    11   ar
    27    11    12   ar
    28    12    13   ar
    29    13     5   ar
    30    12     7   ar
    31    22    17   ar
    32    31    24   ar
    33     4    14    1
    34     4    15    1
