@<TRIPOS>MOLECULE
*****
 35 39 0 0 0
SMALL
GASTEIGER

@<TRIPOS>ATOM
      1 C          64.6008   91.6408   13.2985 C.ar    1  UNL1        0.1512
      2 C          64.1937   90.7891   12.1328 C.ar    1  UNL1        0.0619
      3 C          63.3900   89.6370   12.6586 C.ar    1  UNL1        0.0987
      4 S          63.3004   89.7765   14.1494 S.2     1  UNL1       -0.0618
      5 C          64.0486   91.0149   14.5449 C.ar    1  UNL1        0.1178
      6 N          62.7826   88.5381   11.8379 N.ar    1  UNL1       -0.2823
      7 C          61.9574   88.7168   10.5981 C.ar    1  UNL1        0.1831
      8 N          61.5586   87.3568   10.1068 N.ar    1  UNL1       -0.2236
      9 C          62.1374   86.3376   11.0430 C.ar    1  UNL1        0.0991
     10 C          62.0732   84.8391   11.0595 C.ar    1  UNL1        0.0206
     11 C          62.7656   84.0707   12.1458 C.ar    1  UNL1        0.0017
     12 C          63.5221   84.8009   13.2157 C.ar    1  UNL1        0.0016
     13 C          63.5862   86.2994   13.1992 C.ar    1  UNL1        0.0191
     14 C          62.8939   87.0677   12.1128 C.ar    1  UNL1        0.0835
     15 C          62.7015   82.5721   12.1623 C.ar    1  UNL1        0.0031
     16 C          63.1608   81.7886   10.9685 C.ar    1  UNL1        0.0207
     17 C          63.0967   80.2901   10.9850 C.ar    1  UNL1        0.0989
     18 N          62.5733   79.5750   12.1953 N.ar    1  UNL1       -0.2423
     19 C          62.1140   80.3586   13.3891 C.ar    1  UNL1        0.0989
     20 C          62.1781   81.8572   13.3726 C.ar    1  UNL1        0.0207
     21 C          64.2155   91.5361   15.9416 C.2     1  UNL1        0.2518
     22 N          65.2500   92.5823   16.2331 N.am    1  UNL1       -0.3248
     23 O          63.3478   91.0108   17.0467 O.2     1  UNL1       -0.2697
     24 H          65.8195   92.9271   15.5078 H       1  UNL1        0.1453
     25 H          65.3595   92.9244   17.1498 H       1  UNL1        0.1453
     26 O          65.4166   92.8976   13.2299 O.3     1  UNL1       -0.4740
     27 C          67.9184   92.4891   13.7992 C.3     1  UNL1        0.0523
     28 C          66.8531   92.8369   12.8022 C.3     1  UNL1        0.1891
     29 C          67.2242   93.1239   11.3774 C.ar    1  UNL1        0.0278
     30 C          67.9805   92.1037   10.5792 C.ar    1  UNL1        0.0000
     31 C          68.3516   92.3908    9.1545 C.ar    1  UNL1       -0.0002
     32 C          67.9663   93.6980    8.5280 C.ar    1  UNL1        0.0008
     33 C          67.2100   94.7182    9.3261 C.ar    1  UNL1        0.0112
     34 C          66.8389   94.4312   10.7509 C.ar    1  UNL1        0.0570
     35 CL         66.0826   95.4514   11.5490 Cl      1  UNL1       -0.0825
@<TRIPOS>BOND
     1    28    27    1
     2    28    26    1
     3    26     1    1
     4     1     2   ar
     5     2     3   ar
     6     3     6    1
     7     6     7   ar
     8     7     8   ar
     9     8     9   ar
    10     9    10   ar
    11    10    11   ar
    12    11    15    1
    13    15    16   ar
    14    16    17   ar
    15    17    18   ar
    16    18    19   ar
    17    19    20   ar
    18    11    12   ar
    19    12    13   ar
    20    13    14   ar
    21     3     4   ar
    22     4     5   ar
    23     5    21    1
    24    21    22   am
    25    21    23    2
    26    28    29    1
    27    29    30   ar
    28    30    31   ar
    29    31    32   ar
    30    32    33   ar
    31    33    34   ar
    32    34    35    1
    33     5     1   ar
    34    34    29   ar
    35    14     6   ar
    36    14     9   ar
    37    20    15   ar
    38    22    24    1
    39    22    25    1
@<TRIPOS>MOLECULE
*****
 35 39 0 0 0
SMALL
GASTEIGER

@<TRIPOS>ATOM
      1 C          64.3718   91.0982   12.9756 C.ar    1  UNL1        0.1512
      2 C          64.6187   90.0185   13.9871 C.ar    1  UNL1        0.0619
      3 C          63.9024   88.7824   13.5301 C.ar    1  UNL1        0.0987
      4 S          63.2127   89.0981   12.2360 S.2     1  UNL1       -0.0618
      5 C          63.5028   90.5293   11.8933 C.ar    1  UNL1        0.1178
      6 N          63.8797   87.4623   14.2421 N.ar    1  UNL1       -0.2823
      7 C          64.1271   87.2456   15.7056 C.ar    1  UNL1        0.1831
      8 N          64.0059   85.7765   15.9835 N.ar    1  UNL1       -0.2236
      9 C          63.6835   85.0854   14.6918 C.ar    1  UNL1        0.0991
     10 C          63.4509   83.6420   14.3566 C.ar    1  UNL1        0.0206
     11 C          63.1403   83.2405   12.9451 C.ar    1  UNL1        0.0017
     12 C          63.0623   84.2824   11.8689 C.ar    1  UNL1        0.0016
     13 C          63.2949   85.7258   12.2041 C.ar    1  UNL1        0.0191
     14 C          63.6055   86.1273   13.6155 C.ar    1  UNL1        0.0835
     15 C          62.9077   81.7970   12.6099 C.ar    1  UNL1        0.0031
     16 C          62.4473   80.8448   13.6735 C.ar    1  UNL1        0.0207
     17 C          62.2147   79.4014   13.3383 C.ar    1  UNL1        0.0989
     18 N          62.4425   78.9101   11.9394 N.ar    1  UNL1       -0.2423
     19 C          62.9030   79.8623   10.8758 C.ar    1  UNL1        0.0989
     20 C          63.1356   81.3058   11.2111 C.ar    1  UNL1        0.0207
     21 C          63.0104   91.2630   10.6811 C.2     1  UNL1        0.2518
     22 N          63.8355   92.3643   10.0843 N.am    1  UNL1       -0.3248
     23 O          61.6928   90.8951   10.0657 O.2     1  UNL1       -0.2697
     24 H          64.7002   92.6057   10.4882 H       1  UNL1        0.1453
     25 H          63.5123   92.8458    9.2887 H       1  UNL1        0.1453
     26 O          64.9009   92.5004   13.0357 O.3     1  UNL1       -0.4740
     27 C          67.2562   92.7356   14.1069 C.3     1  UNL1        0.0523
     28 C          66.3727   92.7534   12.8948 C.3     1  UNL1        0.1891
     29 C          66.9610   93.0242   11.5419 C.ar    1  UNL1        0.0278
     30 C          67.7460   91.9572   10.8382 C.ar    1  UNL1        0.0000
     31 C          68.3343   92.2279    9.4852 C.ar    1  UNL1       -0.0002
     32 C          68.1376   93.5657    8.8359 C.ar    1  UNL1        0.0008
     33 C          67.3526   94.6327    9.5395 C.ar    1  UNL1        0.0112
     34 C          66.7642   94.3620   10.8926 C.ar    1  UNL1        0.0570
     35 CL         65.9792   95.4289   11.5962 Cl      1  UNL1       -0.0825
@<TRIPOS>BOND
     1    28    27    1
     2    28    26    1
     3    26     1    1
     4     1     2   ar
     5     2     3   ar
     6     3     6    1
     7     6     7   ar
     8     7     8   ar
     9     8     9   ar
    10     9    10   ar
    11    10    11   ar
    12    11    15    1
    13    15    16   ar
    14    16    17   ar
    15    17    18   ar
    16    18    19   ar
    17    19    20   ar
    18    11    12   ar
    19    12    13   ar
    20    13    14   ar
    21     3     4   ar
    22     4     5   ar
    23     5    21    1
    24    21    22   am
    25    21    23    2
    26    28    29    1
    27    29    30   ar
    28    30    31   ar
    29    31    32   ar
    30    32    33   ar
    31    33    34   ar
    32    34    35    1
    33     5     1   ar
    34    34    29   ar
    35    14     6   ar
    36    14     9   ar
    37    20    15   ar
    38    22    24    1
    39    22    25    1
@<TRIPOS>MOLECULE
*****
 35 39 0 0 0
SMALL
GASTEIGER

@<TRIPOS>ATOM
      1 C          63.7002   90.4637   12.8355 C.ar    1  UNL1        0.1512
      2 C          64.1686   89.3296   13.6983 C.ar    1  UNL1        0.0619
      3 C          63.5923   88.0591   13.1473 C.ar    1  UNL1        0.0987
      4 S          62.7677   88.4079   11.9439 S.2     1  UNL1       -0.0618
      5 C          62.8343   89.8940   11.7511 C.ar    1  UNL1        0.1178
      6 N          63.8036   86.6817   13.7022 N.ar    1  UNL1       -0.2823
      7 C          64.3398   86.3523   15.0639 C.ar    1  UNL1        0.1831
      8 N          64.3833   84.8588   15.1961 N.ar    1  UNL1       -0.2236
      9 C          63.8741   84.2651   13.9162 C.ar    1  UNL1        0.0991
     10 C          63.6903   82.8442   13.4721 C.ar    1  UNL1        0.0206
     11 C          63.1482   82.5499   12.1048 C.ar    1  UNL1        0.0017
     12 C          62.7899   83.6765   11.1816 C.ar    1  UNL1        0.0016
     13 C          62.9737   85.0974   11.6256 C.ar    1  UNL1        0.0191
     14 C          63.5158   85.3917   12.9929 C.ar    1  UNL1        0.0835
     15 C          62.9644   81.1289   11.6607 C.ar    1  UNL1        0.0031
     16 C          63.1263   80.7685   10.2137 C.ar    1  UNL1        0.0207
     17 C          62.9425   79.3476    9.7696 C.ar    1  UNL1        0.0989
     18 N          62.5969   78.2871   10.7725 N.ar    1  UNL1       -0.2423
     19 C          62.4350   78.6475   12.2196 C.ar    1  UNL1        0.0989
     20 C          62.6188   80.0684   12.6637 C.ar    1  UNL1        0.0207
     21 C          62.1544   90.6735   10.6648 C.2     1  UNL1        0.2518
     22 N          62.9449   91.6269    9.8185 N.am    1  UNL1       -0.3248
     23 O          60.6839   90.4997   10.4247 O.2     1  UNL1       -0.2697
     24 H          63.9100   91.7410    9.9761 H       1  UNL1        0.1453
     25 H          62.4986   92.1385    9.1055 H       1  UNL1        0.1453
     26 O          64.0381   91.9128   13.0239 O.3     1  UNL1       -0.4740
     27 C          65.7986   92.8810   11.3766 C.3     1  UNL1        0.0523
     28 C          65.4298   92.4003   12.7488 C.3     1  UNL1        0.1891
     29 C          66.4526   92.4071   13.8460 C.ar    1  UNL1        0.0278
     30 C          66.0533   92.7864   15.2412 C.ar    1  UNL1        0.0000
     31 C          67.0762   92.7931   16.3384 C.ar    1  UNL1       -0.0002
     32 C          68.4983   92.4207   16.0403 C.ar    1  UNL1        0.0008
     33 C          68.8975   92.0414   14.6451 C.ar    1  UNL1        0.0112
     34 C          67.8747   92.0346   13.5479 C.ar    1  UNL1        0.0570
     35 CL         68.2740   91.6554   12.1527 Cl      1  UNL1       -0.0825
@<TRIPOS>BOND
     1    28    27    1
     2    28    26    1
     3    26     1    1
     4     1     2   ar
     5     2     3   ar
     6     3     6    1
     7     6     7   ar
     8     7     8   ar
     9     8     9   ar
    10     9    10   ar
    11    10    11   ar
    12    11    15    1
    13    15    16   ar
    14    16    17   ar
    15    17    18   ar
    16    18    19   ar
    17    19    20   ar
    18    11    12   ar
    19    12    13   ar
    20    13    14   ar
    21     3     4   ar
    22     4     5   ar
    23     5    21    1
    24    21    22   am
    25    21    23    2
    26    28    29    1
    27    29    30   ar
    28    30    31   ar
    29    31    32   ar
    30    32    33   ar
    31    33    34   ar
    32    34    35    1
    33     5     1   ar
    34    34    29   ar
    35    14     6   ar
    36    14     9   ar
    37    20    15   ar
    38    22    24    1
    39    22    25    1
@<TRIPOS>MOLECULE
*****
 35 39 0 0 0
SMALL
GASTEIGER

@<TRIPOS>ATOM
      1 C          65.0295   91.6805   13.0691 C.ar    1  UNL1        0.1512
      2 C          64.2749   90.4170   13.3593 C.ar    1  UNL1        0.0619
      3 C          64.4443   90.0998   14.8155 C.ar    1  UNL1        0.0987
      4 S          65.3037   91.1673   15.4254 S.2     1  UNL1       -0.0618
      5 C          65.6653   92.1441   14.3461 C.ar    1  UNL1        0.1178
      6 N          63.8575   88.9220   15.5354 N.ar    1  UNL1       -0.2823
      7 C          63.2864   88.9315   16.9224 C.ar    1  UNL1        0.1831
      8 N          62.8147   87.5432   17.2390 N.ar    1  UNL1       -0.2236
      9 C          63.0942   86.6757   16.0476 C.ar    1  UNL1        0.0991
     10 C          62.8451   85.2200   15.7854 C.ar    1  UNL1        0.0206
     11 C          63.2405   84.6164   14.4704 C.ar    1  UNL1        0.0017
     12 C          63.8850   85.4685   13.4176 C.ar    1  UNL1        0.0016
     13 C          64.1341   86.9243   13.6797 C.ar    1  UNL1        0.0191
     14 C          63.7387   87.5278   14.9947 C.ar    1  UNL1        0.0835
     15 C          62.9914   83.1606   14.2082 C.ar    1  UNL1        0.0031
     16 C          61.6491   82.5631   14.5101 C.ar    1  UNL1        0.0207
     17 C          61.4000   81.1074   14.2480 C.ar    1  UNL1        0.0989
     18 N          62.4933   80.2491   13.6838 N.ar    1  UNL1       -0.2423
     19 C          63.8356   80.8465   13.3819 C.ar    1  UNL1        0.0989
     20 C          64.0847   82.3023   13.6441 C.ar    1  UNL1        0.0207
     21 C          66.5139   93.3697   14.5143 C.2     1  UNL1        0.2518
     22 N          67.7395   93.3206   15.3776 N.am    1  UNL1       -0.3248
     23 O          66.1367   94.6442   13.8190 O.2     1  UNL1       -0.2697
     24 H          67.9870   92.4841   15.8339 H       1  UNL1        0.1453
     25 H          68.2964   94.1249   15.4880 H       1  UNL1        0.1453
     26 O          65.1305   92.3607   11.7361 O.3     1  UNL1       -0.4740
     27 C          67.6774   91.9015   11.5071 C.3     1  UNL1        0.0523
     28 C          66.4742   92.7379   11.1865 C.3     1  UNL1        0.1891
     29 C          66.6147   93.9515   10.3161 C.ar    1  UNL1        0.0278
     30 C          65.8259   95.1899   10.6230 C.ar    1  UNL1        0.0000
     31 C          65.9665   96.4035    9.7527 C.ar    1  UNL1       -0.0002
     32 C          66.8958   96.3787    8.5755 C.ar    1  UNL1        0.0008
     33 C          67.6846   95.1403    8.2687 C.ar    1  UNL1        0.0112
     34 C          67.5441   93.9267    9.1390 C.ar    1  UNL1        0.0570
     35 CL         68.3328   92.6883    8.8322 Cl      1  UNL1       -0.0825
@<TRIPOS>BOND
     1    28    27    1
     2    28    26    1
     3    26     1    1
     4     1     2   ar
     5     2     3   ar
     6     3     6    1
     7     6     7   ar
     8     7     8   ar
     9     8     9   ar
    10     9    10   ar
    11    10    11   ar
    12    11    15    1
    13    15    16   ar
    14    16    17   ar
    15    17    18   ar
    16    18    19   ar
    17    19    20   ar
    18    11    12   ar
    19    12    13   ar
    20    13    14   ar
    21     3     4   ar
    22     4     5   ar
    23     5    21    1
    24    21    22   am
    25    21    23    2
    26    28    29    1
    27    29    30   ar
    28    30    31   ar
    29    31    32   ar
    30    32    33   ar
    31    33    34   ar
    32    34    35    1
    33     5     1   ar
    34    34    29   ar
    35    14     6   ar
    36    14     9   ar
    37    20    15   ar
    38    22    24    1
    39    22    25    1
@<TRIPOS>MOLECULE
*****
 35 39 0 0 0
SMALL
GASTEIGER

@<TRIPOS>ATOM
      1 C          64.9986   91.7191   13.5721 C.ar    1  UNL1        0.1512
      2 C          63.9757   90.6816   13.9291 C.ar    1  UNL1        0.0619
      3 C          64.5671   89.7899   14.9802 C.ar    1  UNL1        0.0987
      4 S          65.9555   90.2762   15.2730 S.2     1  UNL1       -0.0618
      5 C          66.2222   91.4685   14.4028 C.ar    1  UNL1        0.1178
      6 N          63.8891   88.6176   15.6254 N.ar    1  UNL1       -0.2823
      7 C          63.2388   88.6094   16.9770 C.ar    1  UNL1        0.1831
      8 N          62.6902   87.2345   17.2191 N.ar    1  UNL1       -0.2236
      9 C          63.0016   86.3929   16.0171 C.ar    1  UNL1        0.0991
     10 C          62.7061   84.9587   15.6922 C.ar    1  UNL1        0.0206
     11 C          63.1515   84.3793   14.3824 C.ar    1  UNL1        0.0017
     12 C          63.8925   85.2341   13.3974 C.ar    1  UNL1        0.0016
     13 C          64.1880   86.6683   13.7222 C.ar    1  UNL1        0.0191
     14 C          63.7425   87.2478   15.0321 C.ar    1  UNL1        0.0835
     15 C          62.8560   82.9450   14.0574 C.ar    1  UNL1        0.0031
     16 C          63.8465   82.1336   13.2760 C.ar    1  UNL1        0.0207
     17 C          63.5511   80.6993   12.9511 C.ar    1  UNL1        0.0989
     18 N          62.2651   80.0764   13.4076 N.ar    1  UNL1       -0.2423
     19 C          61.2747   80.8878   14.1890 C.ar    1  UNL1        0.0989
     20 C          61.5701   82.3221   14.5139 C.ar    1  UNL1        0.0207
     21 C          67.4900   92.2696   14.3691 C.2     1  UNL1        0.2518
     22 N          68.5731   91.9188   13.3925 N.am    1  UNL1       -0.3248
     23 O          67.6746   93.4214   15.3121 O.2     1  UNL1       -0.2697
     24 H          68.4520   91.1628   12.7736 H       1  UNL1        0.1453
     25 H          69.4052   92.4446   13.3704 H       1  UNL1        0.1453
     26 O          64.8279   92.8147   12.5620 O.3     1  UNL1       -0.4740
     27 C          63.9305   91.7496   10.3688 C.3     1  UNL1        0.0523
     28 C          64.9900   92.5192   11.1004 C.3     1  UNL1        0.1891
     29 C          66.2116   92.9932   10.3704 C.ar    1  UNL1        0.0278
     30 C          67.2931   92.0195   10.0069 C.ar    1  UNL1        0.0000
     31 C          68.5147   92.4936    9.2769 C.ar    1  UNL1       -0.0002
     32 C          68.6548   93.9414    8.9104 C.ar    1  UNL1        0.0008
     33 C          67.5733   94.9150    9.2738 C.ar    1  UNL1        0.0112
     34 C          66.3516   94.4410   10.0039 C.ar    1  UNL1        0.0570
     35 CL         65.2701   95.4147   10.3674 Cl      1  UNL1       -0.0825
@<TRIPOS>BOND
     1    28    27    1
     2    28    26    1
     3    26     1    1
     4     1     2   ar
     5     2     3   ar
     6     3     6    1
     7     6     7   ar
     8     7     8   ar
     9     8     9   ar
    10     9    10   ar
    11    10    11   ar
    12    11    15    1
    13    15    16   ar
    14    16    17   ar
    15    17    18   ar
    16    18    19   ar
    17    19    20   ar
    18    11    12   ar
    19    12    13   ar
    20    13    14   ar
    21     3     4   ar
    22     4     5   ar
    23     5    21    1
    24    21    22   am
    25    21    23    2
    26    28    29    1
    27    29    30   ar
    28    30    31   ar
    29    31    32   ar
    30    32    33   ar
    31    33    34   ar
    32    34    35    1
    33     5     1   ar
    34    34    29   ar
    35    14     6   ar
    36    14     9   ar
    37    20    15   ar
    38    22    24    1
    39    22    25    1
@<TRIPOS>MOLECULE
*****
 35 39 0 0 0
SMALL
GASTEIGER

@<TRIPOS>ATOM
      1 C          61.7007   86.0591   10.7485 C.ar    1  UNL1        0.1512
      2 C          62.5251   86.8264   11.7394 C.ar    1  UNL1        0.0619
      3 C          62.3500   88.2886   11.4547 C.ar    1  UNL1        0.0987
      4 S          61.4174   88.4252   10.2878 S.2     1  UNL1       -0.0618
      5 C          61.0161   87.0474    9.8514 C.ar    1  UNL1        0.1178
      6 N          62.9944   89.4163   12.2050 N.ar    1  UNL1       -0.2823
      7 C          63.0303   89.5765   13.6960 C.ar    1  UNL1        0.1831
      8 N          63.7741   90.8411   14.0085 N.ar    1  UNL1       -0.2236
      9 C          64.1980   91.4624   12.7107 C.ar    1  UNL1        0.0991
     10 C          64.9605   92.7161   12.3999 C.ar    1  UNL1        0.0206
     11 C          65.2411   93.0894   10.9745 C.ar    1  UNL1        0.0017
     12 C          64.7592   92.2088    9.8598 C.ar    1  UNL1        0.0016
     13 C          63.9967   90.9550   10.1706 C.ar    1  UNL1        0.0191
     14 C          63.7161   90.5818   11.5961 C.ar    1  UNL1        0.0835
     15 C          66.0036   94.3432   10.6636 C.ar    1  UNL1        0.0031
     16 C          66.9523   94.3755    9.5022 C.ar    1  UNL1        0.0207
     17 C          67.7148   95.6293    9.1913 C.ar    1  UNL1        0.0989
     18 N          67.5286   96.8507   10.0419 N.ar    1  UNL1       -0.2423
     19 C          66.5800   96.8184   11.2034 C.ar    1  UNL1        0.0989
     20 C          65.8175   95.5646   11.5142 C.ar    1  UNL1        0.0207
     21 C          60.0923   86.7159    8.7170 C.2     1  UNL1        0.2518
     22 N          60.5159   85.7306    7.6682 N.am    1  UNL1       -0.3248
     23 O          58.7450   87.3697    8.6314 O.2     1  UNL1       -0.2697
     24 H          61.4001   85.3015    7.7244 H       1  UNL1        0.1453
     25 H          59.9096   85.5131    6.9237 H       1  UNL1        0.1453
     26 O          61.5818   84.5661   10.6688 O.3     1  UNL1       -0.4740
     27 C          64.0682   83.9404   10.2488 C.3     1  UNL1        0.0523
     28 C          62.7718   83.7020   10.9646 C.3     1  UNL1        0.1891
     29 C          62.6652   82.5996   11.9762 C.ar    1  UNL1        0.0278
     30 C          62.6974   81.1676   11.5310 C.ar    1  UNL1        0.0000
     31 C          62.5908   80.0651   12.5426 C.ar    1  UNL1       -0.0002
     32 C          62.4521   80.3948   13.9993 C.ar    1  UNL1        0.0008
     33 C          62.4200   81.8268   14.4445 C.ar    1  UNL1        0.0112
     34 C          62.5266   82.9293   13.4329 C.ar    1  UNL1        0.0570
     35 CL         62.4944   84.3613   13.8780 Cl      1  UNL1       -0.0825
@<TRIPOS>BOND
     1    28    27    1
     2    28    26    1
     3    26     1    1
     4     1     2   ar
     5     2     3   ar
     6     3     6    1
     7     6     7   ar
     8     7     8   ar
     9     8     9   ar
    10     9    10   ar
    11    10    11   ar
    12    11    15    1
    13    15    16   ar
    14    16    17   ar
    15    17    18   ar
    16    18    19   ar
    17    19    20   ar
    18    11    12   ar
    19    12    13   ar
    20    13    14   ar
    21     3     4   ar
    22     4     5   ar
    23     5    21    1
    24    21    22   am
    25    21    23    2
    26    28    29    1
    27    29    30   ar
    28    30    31   ar
    29    31    32   ar
    30    32    33   ar
    31    33    34   ar
    32    34    35    1
    33     5     1   ar
    34    34    29   ar
    35    14     6   ar
    36    14     9   ar
    37    20    15   ar
    38    22    24    1
    39    22    25    1
@<TRIPOS>MOLECULE
*****
 35 39 0 0 0
SMALL
GASTEIGER

@<TRIPOS>ATOM
      1 C          64.5090   90.6025   14.3977 C.ar    1  UNL1        0.1512
      2 C          64.2213   89.1376   14.2519 C.ar    1  UNL1        0.0619
      3 C          63.7492   88.6235   15.5795 C.ar    1  UNL1        0.0987
      4 S          63.7451   89.7706   16.5460 S.2     1  UNL1       -0.0618
      5 C          64.2147   90.9937   15.8155 C.ar    1  UNL1        0.1178
      6 N          63.3510   87.2103   15.8869 N.ar    1  UNL1       -0.2823
      7 C          62.8952   86.6926   17.2188 C.ar    1  UNL1        0.1831
      8 N          62.6013   85.2291   17.0713 N.ar    1  UNL1       -0.2236
      9 C          62.8755   84.8423   15.6482 C.ar    1  UNL1        0.0991
     10 C          62.7631   83.5333   14.9244 C.ar    1  UNL1        0.0206
     11 C          63.1141   83.4489   13.4685 C.ar    1  UNL1        0.0017
     12 C          63.5775   84.6734   12.7364 C.ar    1  UNL1        0.0016
     13 C          63.6899   85.9823   13.4603 C.ar    1  UNL1        0.0191
     14 C          63.3389   86.0668   14.9162 C.ar    1  UNL1        0.0835
     15 C          63.0017   82.1399   12.7446 C.ar    1  UNL1        0.0031
     16 C          63.2357   82.0791   11.2642 C.ar    1  UNL1        0.0207
     17 C          63.1233   80.7702   10.5403 C.ar    1  UNL1        0.0989
     18 N          62.7770   79.5220   11.2967 N.ar    1  UNL1       -0.2423
     19 C          62.5430   79.5828   12.7771 C.ar    1  UNL1        0.0989
     20 C          62.6554   80.8918   13.5011 C.ar    1  UNL1        0.0207
     21 C          64.3637   92.3670   16.4003 C.2     1  UNL1        0.2518
     22 N          65.7245   92.9857   16.5245 N.am    1  UNL1       -0.3248
     23 O          63.1519   93.1216   16.8610 O.2     1  UNL1       -0.2697
     24 H          66.5199   92.4904   16.2221 H       1  UNL1        0.1453
     25 H          65.8224   93.8870   16.9083 H       1  UNL1        0.1453
     26 O          65.0041   91.5158   13.3157 O.3     1  UNL1       -0.4740
     27 C          67.4144   91.4235   14.2812 C.3     1  UNL1        0.0523
     28 C          66.4742   91.7731   13.1659 C.3     1  UNL1        0.1891
     29 C          67.0042   92.3802   11.9007 C.ar    1  UNL1        0.0278
     30 C          67.8114   91.5469   10.9498 C.ar    1  UNL1        0.0000
     31 C          68.3414   92.1540    9.6847 C.ar    1  UNL1       -0.0002
     32 C          68.0642   93.5943    9.3705 C.ar    1  UNL1        0.0008
     33 C          67.2571   94.4275   10.3213 C.ar    1  UNL1        0.0112
     34 C          66.7271   93.8205   11.5865 C.ar    1  UNL1        0.0570
     35 CL         65.9200   94.6537   12.5374 Cl      1  UNL1       -0.0825
@<TRIPOS>BOND
     1    28    27    1
     2    28    26    1
     3    26     1    1
     4     1     2   ar
     5     2     3   ar
     6     3     6    1
     7     6     7   ar
     8     7     8   ar
     9     8     9   ar
    10     9    10   ar
    11    10    11   ar
    12    11    15    1
    13    15    16   ar
    14    16    17   ar
    15    17    18   ar
    16    18    19   ar
    17    19    20   ar
    18    11    12   ar
    19    12    13   ar
    20    13    14   ar
    21     3     4   ar
    22     4     5   ar
    23     5    21    1
    24    21    22   am
    25    21    23    2
    26    28    29    1
    27    29    30   ar
    28    30    31   ar
    29    31    32   ar
    30    32    33   ar
    31    33    34   ar
    32    34    35    1
    33     5     1   ar
    34    34    29   ar
    35    14     6   ar
    36    14     9   ar
    37    20    15   ar
    38    22    24    1
    39    22    25    1
@<TRIPOS>MOLECULE
*****
 35 39 0 0 0
SMALL
GASTEIGER

@<TRIPOS>ATOM
      1 C          63.4029   89.9123   13.1062 C.ar    1  UNL1        0.1512
      2 C          63.0954   88.4451   13.1598 C.ar    1  UNL1        0.0619
      3 C          63.9328   87.8352   14.2444 C.ar    1  UNL1        0.0987
      4 S          64.7581   88.9253   14.8613 S.2     1  UNL1       -0.0618
      5 C          64.4306   90.2090   14.1578 C.ar    1  UNL1        0.1178
      6 N          63.9433   86.3890   14.6424 N.ar    1  UNL1       -0.2823
      7 C          64.2262   85.8543   16.0150 C.ar    1  UNL1        0.1831
      8 N          64.1304   84.3584   15.9585 N.ar    1  UNL1       -0.2236
      9 C          63.7884   83.9686   14.5510 C.ar    1  UNL1        0.0991
     10 C          63.5674   82.6331   13.9049 C.ar    1  UNL1        0.0206
     11 C          63.2307   82.5525   12.4455 C.ar    1  UNL1        0.0017
     12 C          63.1150   83.8075   11.6321 C.ar    1  UNL1        0.0016
     13 C          63.3361   85.1430   12.2781 C.ar    1  UNL1        0.0191
     14 C          63.6728   85.2236   13.7376 C.ar    1  UNL1        0.0835
     15 C          63.0096   81.2169   11.7993 C.ar    1  UNL1        0.0031
     16 C          62.6560   80.0263   12.6404 C.ar    1  UNL1        0.0207
     17 C          62.4349   78.6907   11.9943 C.ar    1  UNL1        0.0989
     18 N          62.5674   78.5458   10.5072 N.ar    1  UNL1       -0.2423
     19 C          62.9210   79.7365    9.6661 C.ar    1  UNL1        0.0989
     20 C          63.1421   81.0720   10.3123 C.ar    1  UNL1        0.0207
     21 C          65.0262   91.5536   14.4540 C.2     1  UNL1        0.2518
     22 N          65.6186   92.3721   13.3454 N.am    1  UNL1       -0.3248
     23 O          65.0295   92.0794   15.8588 O.2     1  UNL1       -0.2697
     24 H          65.6165   92.0270   12.4234 H       1  UNL1        0.1453
     25 H          66.0095   93.2545   13.5398 H       1  UNL1        0.1453
     26 O          62.7904   90.9078   12.1662 O.3     1  UNL1       -0.4740
     27 C          63.2432   91.4722    9.6709 C.3     1  UNL1        0.0523
     28 C          62.6432   90.5735   10.7114 C.3     1  UNL1        0.1891
     29 C          61.8961   89.3407   10.2970 C.ar    1  UNL1        0.0278
     30 C          62.6395   88.1693    9.7267 C.ar    1  UNL1        0.0000
     31 C          61.8923   86.9364    9.3123 C.ar    1  UNL1       -0.0002
     32 C          60.4017   86.8749    9.4682 C.ar    1  UNL1        0.0008
     33 C          59.6583   88.0462   10.0385 C.ar    1  UNL1        0.0112
     34 C          60.4055   89.2792   10.4529 C.ar    1  UNL1        0.0570
     35 CL         59.6621   90.4504   11.0232 Cl      1  UNL1       -0.0825
@<TRIPOS>BOND
     1    28    27    1
     2    28    26    1
     3    26     1    1
     4     1     2   ar
     5     2     3   ar
     6     3     6    1
     7     6     7   ar
     8     7     8   ar
     9     8     9   ar
    10     9    10   ar
    11    10    11   ar
    12    11    15    1
    13    15    16   ar
    14    16    17   ar
    15    17    18   ar
    16    18    19   ar
    17    19    20   ar
    18    11    12   ar
    19    12    13   ar
    20    13    14   ar
    21     3     4   ar
    22     4     5   ar
    23     5    21    1
    24    21    22   am
    25    21    23    2
    26    28    29    1
    27    29    30   ar
    28    30    31   ar
    29    31    32   ar
    30    32    33   ar
    31    33    34   ar
    32    34    35    1
    33     5     1   ar
    34    34    29   ar
    35    14     6   ar
    36    14     9   ar
    37    20    15   ar
    38    22    24    1
    39    22    25    1
