@<TRIPOS>MOLECULE
*****
 24 26 0 0 0
SMALL
GASTEIGER

@<TRIPOS>ATOM
      1 C          63.8789   90.4966   15.8203 C.ar    1  UNL1        0.1721
      2 C          63.2295   89.5742   16.8089 C.ar    1  UNL1        0.0356
      3 C          63.1770   88.1000   16.5370 C.ar    1  UNL1       -0.0203
      4 C          63.7740   87.5482   15.2764 C.ar    1  UNL1       -0.0084
      5 C          64.4234   88.4706   14.2878 C.ar    1  UNL1        0.0368
      6 C          64.4759   89.9448   14.5598 C.ar    1  UNL1        0.1721
      7 C          63.7215   86.0740   15.0045 C.3     1  UNL1        0.0823
      8 C          64.3185   85.5222   13.7439 C.3     1  UNL1        0.0497
      9 C          64.2660   84.0479   13.4720 C.3     1  UNL1        0.1135
     10 O          64.8630   83.4961   12.2113 O.3     1  UNL1       -0.3844
     11 C          63.6166   83.1256   14.4606 C.3     1  UNL1        0.0429
     12 C          63.0196   83.6774   15.7211 C.3     1  UNL1        0.0747
     13 N          63.0721   85.1516   15.9931 N.3     1  UNL1       -0.2699
     14 C          62.4750   85.7034   17.2537 C.3     1  UNL1        0.0770
     15 C          62.5275   87.1776   17.5257 C.3     1  UNL1        0.0435
     16 H          65.2388   84.2208   11.6873 H       1  UNL1        0.2103
     17 C          65.1849   92.5889   16.6369 C.3     1  UNL1        0.2526
     18 O          63.9314   91.9708   16.0923 O.3     1  UNL1       -0.4684
     19 O          65.1254   90.8672   13.5711 O.3     1  UNL1       -0.4684
     20 C          64.2966   91.5434   12.5196 C.3     1  UNL1        0.2526
     21 C          63.5641   81.6514   14.1886 C.3     1  UNL1        0.0038
     22 C          62.4580   81.0822   13.3505 C.3     1  UNL1        0.0001
     23 C          61.0971   80.8738   13.9458 C.3     1  UNL1        0.0000
     24 C          62.7128   80.7215   11.9169 C.3     1  UNL1        0.0000
@<TRIPOS>BOND
     1    17    18    1
     2    18     1    1
     3     1     2   ar
     4     2     3   ar
     5     3     4   ar
     6     4     5   ar
     7     5     6   ar
     8     6    19    1
     9    19    20    1
    10     4     7    1
    11     7     8    1
    12     8     9    1
    13     9    10    1
    14     9    11    1
    15    11    21    1
    16    21    22    1
    17    22    23    1
    18    22    24    1
    19    11    12    1
    20    12    13    1
    21    13    14    1
    22    14    15    1
    23     6     1   ar
    24    13     7    1
    25    15     3    1
    26    10    16    1
@<TRIPOS>MOLECULE
*****
 24 26 0 0 0
SMALL
GASTEIGER

@<TRIPOS>ATOM
      1 C          66.4829   92.9565   13.9168 C.ar    1  UNL1        0.1721
      2 C          66.1637   91.6469   14.5748 C.ar    1  UNL1        0.0356
      3 C          65.1783   90.7099   13.9415 C.ar    1  UNL1       -0.0203
      4 C          64.5122   91.0824   12.6502 C.ar    1  UNL1       -0.0084
      5 C          64.8315   92.3920   11.9923 C.ar    1  UNL1        0.0368
      6 C          65.8168   93.3291   12.6255 C.ar    1  UNL1        0.1721
      7 C          63.5269   90.1454   12.0169 C.3     1  UNL1        0.0823
      8 C          62.8608   90.5180   10.7257 C.3     1  UNL1        0.0497
      9 C          61.8754   89.5809   10.0924 C.3     1  UNL1        0.1135
     10 O          61.2093   89.9536    8.8010 O.3     1  UNL1       -0.3844
     11 C          61.5562   88.2713   10.7504 C.3     1  UNL1        0.0429
     12 C          62.2223   87.8988   12.0416 C.3     1  UNL1        0.0747
     13 N          63.2076   88.8358   12.6749 N.3     1  UNL1       -0.2699
     14 C          63.8738   88.4632   13.9663 C.3     1  UNL1        0.0770
     15 C          64.8591   89.4002   14.5996 C.3     1  UNL1        0.0435
     16 H          61.5249   90.8247    8.5140 H       1  UNL1        0.2103
     17 C          68.2869   93.4408   15.7226 C.3     1  UNL1        0.2526
     18 O          67.4683   93.8935   14.5501 O.3     1  UNL1       -0.4684
     19 O          66.1361   94.6387   11.9675 O.3     1  UNL1       -0.4684
     20 C          66.5234   94.6755   10.5189 C.3     1  UNL1        0.2526
     21 C          60.5708   87.3343   10.1171 C.3     1  UNL1        0.0038
     22 C          60.9786   86.5018    8.9378 C.3     1  UNL1        0.0001
     23 C          62.3757   85.9634    8.8471 C.3     1  UNL1        0.0000
     24 C          59.9893   86.2078    7.8493 C.3     1  UNL1        0.0000
@<TRIPOS>BOND
     1    17    18    1
     2    18     1    1
     3     1     2   ar
     4     2     3   ar
     5     3     4   ar
     6     4     5   ar
     7     5     6   ar
     8     6    19    1
     9    19    20    1
    10     4     7    1
    11     7     8    1
    12     8     9    1
    13     9    10    1
    14     9    11    1
    15    11    21    1
    16    21    22    1
    17    22    23    1
    18    22    24    1
    19    11    12    1
    20    12    13    1
    21    13    14    1
    22    14    15    1
    23     6     1   ar
    24    13     7    1
    25    15     3    1
    26    10    16    1
@<TRIPOS>MOLECULE
*****
 24 26 0 0 0
SMALL
GASTEIGER

@<TRIPOS>ATOM
      1 C          64.6450   91.6732   13.0794 C.ar    1  UNL1        0.1721
      2 C          63.7660   91.0608   12.0295 C.ar    1  UNL1        0.0356
      3 C          63.4138   89.6046   12.1021 C.ar    1  UNL1       -0.0203
      4 C          63.9405   88.7607   13.2247 C.ar    1  UNL1       -0.0084
      5 C          64.8195   89.3730   14.2747 C.ar    1  UNL1        0.0368
      6 C          65.1717   90.8293   14.2020 C.ar    1  UNL1        0.1721
      7 C          63.5883   87.3044   13.2974 C.3     1  UNL1        0.0823
      8 C          64.1150   86.4605   14.4200 C.3     1  UNL1        0.0497
      9 C          63.7628   85.0043   14.4927 C.3     1  UNL1        0.1135
     10 O          64.2896   84.1603   15.6154 O.3     1  UNL1       -0.3844
     11 C          62.8838   84.3919   13.4427 C.3     1  UNL1        0.0429
     12 C          62.3571   85.2359   12.3201 C.3     1  UNL1        0.0747
     13 N          62.7094   86.6921   12.2474 N.3     1  UNL1       -0.2699
     14 C          62.1826   87.5360   11.1247 C.3     1  UNL1        0.0770
     15 C          62.5348   88.9923   11.0521 C.3     1  UNL1        0.0435
     16 H          64.8365   84.7066   16.2014 H       1  UNL1        0.2103
     17 C          66.1207   93.5862   12.1241 C.3     1  UNL1        0.2526
     18 O          64.9972   93.1294   13.0067 O.3     1  UNL1       -0.4684
     19 O          66.0507   91.4416   15.2521 O.3     1  UNL1       -0.4684
     20 C          67.5137   91.6368   14.9849 C.3     1  UNL1        0.2526
     21 C          62.5316   82.9357   13.5154 C.3     1  UNL1        0.0038
     22 C          63.2085   81.9540   12.6054 C.3     1  UNL1        0.0001
     23 C          62.7479   80.5270   12.5659 C.3     1  UNL1        0.0000
     24 C          64.3459   82.3994   11.7347 C.3     1  UNL1        0.0000
@<TRIPOS>BOND
     1    17    18    1
     2    18     1    1
     3     1     2   ar
     4     2     3   ar
     5     3     4   ar
     6     4     5   ar
     7     5     6   ar
     8     6    19    1
     9    19    20    1
    10     4     7    1
    11     7     8    1
    12     8     9    1
    13     9    10    1
    14     9    11    1
    15    11    21    1
    16    21    22    1
    17    22    23    1
    18    22    24    1
    19    11    12    1
    20    12    13    1
    21    13    14    1
    22    14    15    1
    23     6     1   ar
    24    13     7    1
    25    15     3    1
    26    10    16    1
@<TRIPOS>MOLECULE
*****
 24 26 0 0 0
SMALL
GASTEIGER

@<TRIPOS>ATOM
      1 C          63.6700   86.2555   13.3589 C.ar    1  UNL1        0.1721
      2 C          63.6514   87.7151   13.0138 C.ar    1  UNL1        0.0356
      3 C          62.8039   88.2065   11.8778 C.ar    1  UNL1       -0.0203
      4 C          61.9752   87.2382   11.0870 C.ar    1  UNL1       -0.0084
      5 C          61.9938   85.7786   11.4320 C.ar    1  UNL1        0.0368
      6 C          62.8413   85.2872   12.5680 C.ar    1  UNL1        0.1721
      7 C          61.1277   87.7296    9.9510 C.3     1  UNL1        0.0823
      8 C          60.2990   86.7613    9.1601 C.3     1  UNL1        0.0497
      9 C          59.4515   87.2526    8.0241 C.3     1  UNL1        0.1135
     10 O          58.6227   86.2843    7.2332 O.3     1  UNL1       -0.3844
     11 C          59.4328   88.7123    7.6791 C.3     1  UNL1        0.0429
     12 C          60.2616   89.6805    8.4699 C.3     1  UNL1        0.0747
     13 N          61.1090   89.1892    9.6059 N.3     1  UNL1       -0.2699
     14 C          61.9378   90.1575   10.3968 C.3     1  UNL1        0.0770
     15 C          62.7853   89.6662   11.5328 C.3     1  UNL1        0.0435
     16 H          58.7489   85.3888    7.5841 H       1  UNL1        0.2103
     17 C          63.9236   85.6162   15.8643 C.3     1  UNL1        0.2526
     18 O          64.5175   85.7641   14.4949 O.3     1  UNL1       -0.4684
     19 O          62.8599   83.8275   12.9130 O.3     1  UNL1       -0.4684
     20 C          62.9364   82.8001   11.8229 C.3     1  UNL1        0.2526
     21 C          58.5854   89.2036    6.5431 C.3     1  UNL1        0.0038
     22 C          59.0387   90.3731    5.7204 C.3     1  UNL1        0.0001
     23 C          58.0382   91.3758    5.2270 C.3     1  UNL1        0.0000
     24 C          60.4926   90.5399    5.3911 C.3     1  UNL1        0.0000
@<TRIPOS>BOND
     1    17    18    1
     2    18     1    1
     3     1     2   ar
     4     2     3   ar
     5     3     4   ar
     6     4     5   ar
     7     5     6   ar
     8     6    19    1
     9    19    20    1
    10     4     7    1
    11     7     8    1
    12     8     9    1
    13     9    10    1
    14     9    11    1
    15    11    21    1
    16    21    22    1
    17    22    23    1
    18    22    24    1
    19    11    12    1
    20    12    13    1
    21    13    14    1
    22    14    15    1
    23     6     1   ar
    24    13     7    1
    25    15     3    1
    26    10    16    1
@<TRIPOS>MOLECULE
*****
 24 26 0 0 0
SMALL
GASTEIGER

@<TRIPOS>ATOM
      1 C          63.3791   82.2946   13.7027 C.ar    1  UNL1        0.1721
      2 C          63.8618   83.2232   14.7772 C.ar    1  UNL1        0.0356
      3 C          63.8590   84.7051   14.5448 C.ar    1  UNL1       -0.0203
      4 C          63.3735   85.2583   13.2378 C.ar    1  UNL1       -0.0084
      5 C          62.8909   84.3297   12.1633 C.ar    1  UNL1        0.0368
      6 C          62.8936   82.8478   12.3957 C.ar    1  UNL1        0.1721
      7 C          63.3708   86.7402   13.0053 C.3     1  UNL1        0.0823
      8 C          62.8853   87.2934   11.6984 C.3     1  UNL1        0.0497
      9 C          62.8825   88.7753   11.4659 C.3     1  UNL1        0.1135
     10 O          62.3970   89.3285   10.1588 O.3     1  UNL1       -0.3844
     11 C          63.3652   89.7040   12.5404 C.3     1  UNL1        0.0429
     12 C          63.8507   89.1507   13.8474 C.3     1  UNL1        0.0747
     13 N          63.8534   87.6688   14.0798 N.3     1  UNL1       -0.2699
     14 C          64.3389   87.1156   15.3869 C.3     1  UNL1        0.0770
     15 C          64.3417   85.6337   15.6194 C.3     1  UNL1        0.0435
     16 H          62.1235   88.5993    9.5807 H       1  UNL1        0.2103
     17 C          62.1163   80.0250   13.7685 C.3     1  UNL1        0.2526
     18 O          63.3818   80.8127   13.9352 O.3     1  UNL1       -0.4684
     19 O          62.4109   81.9192   11.3211 O.3     1  UNL1       -0.4684
     20 C          63.3820   81.3504   10.3295 C.3     1  UNL1        0.2526
     21 C          63.3624   91.1858   12.3080 C.3     1  UNL1        0.0038
     22 C          64.6464   91.9000   12.0058 C.3     1  UNL1        0.0001
     23 C          65.5913   92.2469   13.1179 C.3     1  UNL1        0.0000
     24 C          64.9855   92.2673   10.5915 C.3     1  UNL1        0.0000
@<TRIPOS>BOND
     1    17    18    1
     2    18     1    1
     3     1     2   ar
     4     2     3   ar
     5     3     4   ar
     6     4     5   ar
     7     5     6   ar
     8     6    19    1
     9    19    20    1
    10     4     7    1
    11     7     8    1
    12     8     9    1
    13     9    10    1
    14     9    11    1
    15    11    21    1
    16    21    22    1
    17    22    23    1
    18    22    24    1
    19    11    12    1
    20    12    13    1
    21    13    14    1
    22    14    15    1
    23     6     1   ar
    24    13     7    1
    25    15     3    1
    26    10    16    1
@<TRIPOS>MOLECULE
*****
 24 26 0 0 0
SMALL
GASTEIGER

@<TRIPOS>ATOM
      1 C          63.5213   90.2331   12.7111 C.ar    1  UNL1        0.1721
      2 C          62.8840   89.5711   11.5255 C.ar    1  UNL1        0.0356
      3 C          62.7699   88.0764   11.4725 C.ar    1  UNL1       -0.0203
      4 C          63.2930   87.2436   12.6050 C.ar    1  UNL1       -0.0084
      5 C          63.9303   87.9055   13.7906 C.ar    1  UNL1        0.0368
      6 C          64.0445   89.4003   13.8437 C.ar    1  UNL1        0.1721
      7 C          63.1788   85.7489   12.5520 C.3     1  UNL1        0.0823
      8 C          63.7019   84.9161   13.6846 C.3     1  UNL1        0.0497
      9 C          63.5877   83.4214   13.6315 C.3     1  UNL1        0.1135
     10 O          64.1109   82.5886   14.7642 O.3     1  UNL1       -0.3844
     11 C          62.9504   82.7595   12.4459 C.3     1  UNL1        0.0429
     12 C          62.4273   83.5923   11.3134 C.3     1  UNL1        0.0747
     13 N          62.5415   85.0870   11.3664 N.3     1  UNL1       -0.2699
     14 C          62.0183   85.9198   10.2338 C.3     1  UNL1        0.0770
     15 C          62.1325   87.4145   10.2868 C.3     1  UNL1        0.0435
     16 H          64.4882   83.1682   15.4443 H       1  UNL1        0.2103
     17 C          64.9362   92.3931   12.4244 C.3     1  UNL1        0.2526
     18 O          63.6355   91.7278   12.7641 O.3     1  UNL1       -0.4684
     19 O          64.6818   90.0621   15.0294 O.3     1  UNL1       -0.4684
     20 C          63.8328   90.7941   16.0260 C.3     1  UNL1        0.2526
     21 C          62.8362   81.2648   12.3929 C.3     1  UNL1        0.0038
     22 C          62.0462   80.5354   13.4387 C.3     1  UNL1        0.0001
     23 C          60.8704   81.2009   14.0904 C.3     1  UNL1        0.0000
     24 C          62.4318   79.1404   13.8328 C.3     1  UNL1        0.0000
@<TRIPOS>BOND
     1    17    18    1
     2    18     1    1
     3     1     2   ar
     4     2     3   ar
     5     3     4   ar
     6     4     5   ar
     7     5     6   ar
     8     6    19    1
     9    19    20    1
    10     4     7    1
    11     7     8    1
    12     8     9    1
    13     9    10    1
    14     9    11    1
    15    11    21    1
    16    21    22    1
    17    22    23    1
    18    22    24    1
    19    11    12    1
    20    12    13    1
    21    13    14    1
    22    14    15    1
    23     6     1   ar
    24    13     7    1
    25    15     3    1
    26    10    16    1
@<TRIPOS>MOLECULE
*****
 24 26 0 0 0
SMALL
GASTEIGER

@<TRIPOS>ATOM
      1 C          60.9269   86.5520    9.2765 C.ar    1  UNL1        0.1721
      2 C          61.5257   85.8874   10.4806 C.ar    1  UNL1        0.0356
      3 C          62.3087   86.6962   11.4719 C.ar    1  UNL1       -0.0203
      4 C          62.4929   88.1695   11.2592 C.ar    1  UNL1       -0.0084
      5 C          61.8941   88.8341   10.0552 C.ar    1  UNL1        0.0368
      6 C          61.1111   88.0253    9.0639 C.ar    1  UNL1        0.1721
      7 C          63.2760   88.9783   12.2506 C.3     1  UNL1        0.0823
      8 C          63.4602   90.4516   12.0379 C.3     1  UNL1        0.0497
      9 C          64.2432   91.2604   13.0292 C.3     1  UNL1        0.1135
     10 O          64.4274   92.7338   12.8165 O.3     1  UNL1       -0.3844
     11 C          64.8420   90.5958   14.2333 C.3     1  UNL1        0.0429
     12 C          64.6578   89.1225   14.4460 C.3     1  UNL1        0.0747
     13 N          63.8748   88.3137   13.4546 N.3     1  UNL1       -0.2699
     14 C          63.6906   86.8403   13.6673 C.3     1  UNL1        0.0770
     15 C          62.9076   86.0315   12.6760 C.3     1  UNL1        0.0435
     16 H          63.9807   93.0007   11.9979 H       1  UNL1        0.2103
     17 C          60.8180   85.2021    7.0594 C.3     1  UNL1        0.2526
     18 O          60.1439   85.7432    8.2852 O.3     1  UNL1       -0.4684
     19 O          60.5123   88.6900    7.8598 O.3     1  UNL1       -0.4684
     20 C          59.0376   88.5909    7.6042 C.3     1  UNL1        0.2526
     21 C          65.6250   91.4046   15.2246 C.3     1  UNL1        0.0038
     22 C          67.0444   91.7870   14.9263 C.3     1  UNL1        0.0001
     23 C          67.5909   91.6190   13.5395 C.3     1  UNL1        0.0000
     24 C          67.9175   92.3375   16.0149 C.3     1  UNL1        0.0000
@<TRIPOS>BOND
     1    17    18    1
     2    18     1    1
     3     1     2   ar
     4     2     3   ar
     5     3     4   ar
     6     4     5   ar
     7     5     6   ar
     8     6    19    1
     9    19    20    1
    10     4     7    1
    11     7     8    1
    12     8     9    1
    13     9    10    1
    14     9    11    1
    15    11    21    1
    16    21    22    1
    17    22    23    1
    18    22    24    1
    19    11    12    1
    20    12    13    1
    21    13    14    1
    22    14    15    1
    23     6     1   ar
    24    13     7    1
    25    15     3    1
    26    10    16    1
@<TRIPOS>MOLECULE
*****
 24 26 0 0 0
SMALL
GASTEIGER

@<TRIPOS>ATOM
      1 C          63.7391   82.4399   13.1666 C.ar    1  UNL1        0.1721
      2 C          64.0002   82.5482   11.6936 C.ar    1  UNL1        0.0356
      3 C          63.4216   83.6898   10.9112 C.ar    1  UNL1       -0.0203
      4 C          62.5817   84.7229   11.6020 C.ar    1  UNL1       -0.0084
      5 C          62.3206   84.6146   13.0751 C.ar    1  UNL1        0.0368
      6 C          62.8993   83.4730   13.8574 C.ar    1  UNL1        0.1721
      7 C          62.0031   85.8645   10.8197 C.3     1  UNL1        0.0823
      8 C          61.1632   86.8977   11.5104 C.3     1  UNL1        0.0497
      9 C          60.5846   88.0392   10.7281 C.3     1  UNL1        0.1135
     10 O          59.7447   89.0724   11.4190 O.3     1  UNL1       -0.3844
     11 C          60.8457   88.1476    9.2550 C.3     1  UNL1        0.0429
     12 C          61.6855   87.1144    8.5643 C.3     1  UNL1        0.0747
     13 N          62.2642   85.9728    9.3466 N.3     1  UNL1       -0.2699
     14 C          63.1041   84.9396    8.6558 C.3     1  UNL1        0.0770
     15 C          63.6827   83.7981    9.4381 C.3     1  UNL1        0.0435
     16 H          59.6755   88.8551   12.3618 H       1  UNL1        0.2103
     17 C          63.5296   80.0344   14.1257 C.3     1  UNL1        0.2526
     18 O          64.3178   81.2983   13.9489 O.3     1  UNL1       -0.4684
     19 O          62.6381   83.3647   15.3306 O.3     1  UNL1       -0.4684
     20 C          62.4674   84.6059   16.1553 C.3     1  UNL1        0.2526
     21 C          60.2670   89.2891    8.4727 C.3     1  UNL1        0.0038
     22 C          59.4365   89.0180    7.2535 C.3     1  UNL1        0.0001
     23 C          59.3527   90.0416    6.1602 C.3     1  UNL1        0.0000
     24 C          58.6896   87.7232    7.1274 C.3     1  UNL1        0.0000
@<TRIPOS>BOND
     1    17    18    1
     2    18     1    1
     3     1     2   ar
     4     2     3   ar
     5     3     4   ar
     6     4     5   ar
     7     5     6   ar
     8     6    19    1
     9    19    20    1
    10     4     7    1
    11     7     8    1
    12     8     9    1
    13     9    10    1
    14     9    11    1
    15    11    21    1
    16    21    22    1
    17    22    23    1
    18    22    24    1
    19    11    12    1
    20    12    13    1
    21    13    14    1
    22    14    15    1
    23     6     1   ar
    24    13     7    1
    25    15     3    1
    26    10    16    1
@<TRIPOS>MOLECULE
*****
 24 26 0 0 0
SMALL
GASTEIGER

@<TRIPOS>ATOM
      1 C          63.1262   83.2600   14.7053 C.ar    1  UNL1        0.1721
      2 C          62.7648   83.9558   15.9840 C.ar    1  UNL1        0.0356
      3 C          62.9880   85.4325   16.1233 C.ar    1  UNL1       -0.0203
      4 C          63.5726   86.2135   14.9839 C.ar    1  UNL1       -0.0084
      5 C          63.9340   85.5177   13.7052 C.ar    1  UNL1        0.0368
      6 C          63.7108   84.0410   13.5659 C.ar    1  UNL1        0.1721
      7 C          63.7958   87.6902   15.1233 C.3     1  UNL1        0.0823
      8 C          64.3804   88.4712   13.9839 C.3     1  UNL1        0.0497
      9 C          64.6036   89.9479   14.1232 C.3     1  UNL1        0.1135
     10 O          65.1882   90.7289   12.9837 O.3     1  UNL1       -0.3844
     11 C          64.2422   90.6437   15.4019 C.3     1  UNL1        0.0429
     12 C          63.6576   89.8628   16.5413 C.3     1  UNL1        0.0747
     13 N          63.4344   88.3860   16.4020 N.3     1  UNL1       -0.2699
     14 C          62.8498   87.6050   17.5415 C.3     1  UNL1        0.0770
     15 C          62.6266   86.1283   17.4022 C.3     1  UNL1        0.0435
     16 H          65.3629   90.1325   12.2389 H       1  UNL1        0.2103
     17 C          61.5662   81.2651   14.1252 C.3     1  UNL1        0.2526
     18 O          62.9030   81.7833   14.5659 O.3     1  UNL1       -0.4684
     19 O          64.0722   83.3452   12.2870 O.3     1  UNL1       -0.4684
     20 C          63.3518   83.6884   11.0169 C.3     1  UNL1        0.2526
     21 C          64.4654   92.1205   15.5413 C.3     1  UNL1        0.0038
     22 C          65.8475   92.6865   15.4022 C.3     1  UNL1        0.0001
     23 C          66.8522   92.4902   16.4985 C.3     1  UNL1        0.0000
     24 C          66.2249   93.4489   14.1667 C.3     1  UNL1        0.0000
@<TRIPOS>BOND
     1    17    18    1
     2    18     1    1
     3     1     2   ar
     4     2     3   ar
     5     3     4   ar
     6     4     5   ar
     7     5     6   ar
     8     6    19    1
     9    19    20    1
    10     4     7    1
    11     7     8    1
    12     8     9    1
    13     9    10    1
    14     9    11    1
    15    11    21    1
    16    21    22    1
    17    22    23    1
    18    22    24    1
    19    11    12    1
    20    12    13    1
    21    13    14    1
    22    14    15    1
    23     6     1   ar
    24    13     7    1
    25    15     3    1
    26    10    16    1
