@<TRIPOS>MOLECULE
*****
 29 31 0 0 0
SMALL
GASTEIGER

@<TRIPOS>ATOM
      1 C          60.9618   88.9271   10.6210 C.2     1  UNL1        0.2407
      2 O          60.6317   90.3434   10.2536 O.2     1  UNL1       -0.2737
      3 N          62.0565   88.6437   11.6065 N.am    1  UNL1       -0.2387
      4 C          62.8211   89.7765   12.2247 C.2     1  UNL1        0.3102
      5 O          62.4909   91.1929   11.8573 O.2     1  UNL1       -0.2521
      6 N          63.9158   89.4931   13.2102 N.am    1  UNL1       -0.2682
      7 H          62.2732   87.7141   11.8477 H       1  UNL1        0.1591
      8 H          64.1325   88.5635   13.4513 H       1  UNL1        0.1564
      9 C          64.6803   90.6260   13.8283 C.ar    1  UNL1        0.0497
     10 C          65.6712   91.3977   13.0083 C.ar    1  UNL1        0.0145
     11 C          66.4357   92.5306   13.6263 C.ar    1  UNL1        0.0036
     12 C          66.2093   92.8918   15.0644 C.ar    1  UNL1        0.0294
     13 C          65.2184   92.1200   15.8845 C.ar    1  UNL1        0.1373
     14 F          64.9920   92.4813   17.3227 F       1  UNL1       -0.2045
     15 C          64.4539   90.9872   15.2664 C.ar    1  UNL1        0.0191
     16 C          63.4629   90.2154   16.0865 C.3     1  UNL1        0.0347
     17 C          60.1973   87.7943   10.0029 C.3     1  UNL1        0.1488
     18 S          60.9094   86.7850    9.1518 S.3     1  UNL1       -0.0840
     19 C          62.7600   85.1377    7.4601 C.3     1  UNL1        0.0543
     20 C          62.7169   84.9301    8.9451 C.ar    1  UNL1        0.0828
     21 N          63.5990   83.8989    9.5842 N.ar    1  UNL1       -0.2461
     22 C          63.5558   83.6913   11.0692 C.ar    1  UNL1        0.0986
     23 C          64.4379   82.6601   11.7083 C.ar    1  UNL1        0.0206
     24 C          64.3946   82.4525   13.1932 C.ar    1  UNL1        0.0016
     25 C          63.4693   83.2762   14.0390 C.ar    1  UNL1        0.0016
     26 C          62.5872   84.3074   13.3999 C.ar    1  UNL1        0.0207
     27 C          62.6305   84.5149   11.9150 C.ar    1  UNL1        0.0994
     28 N          61.7483   85.5462   11.2759 N.ar    1  UNL1       -0.2364
     29 C          61.7915   85.7538    9.7910 C.ar    1  UNL1        0.1206
@<TRIPOS>BOND
     1    19    20    1
     2    20    21   ar
     3    21    22   ar
     4    22    23   ar
     5    23    24   ar
     6    24    25   ar
     7    25    26   ar
     8    26    27   ar
     9    27    28   ar
    10    28    29   ar
    11    29    18    1
    12    18    17    1
    13    17     1    1
    14     1     2    2
    15     1     3   am
    16     3     4   am
    17     4     5    2
    18     4     6   am
    19     6     9    1
    20     9    10   ar
    21    10    11   ar
    22    11    12   ar
    23    12    13   ar
    24    13    14    1
    25    13    15   ar
    26    15    16    1
    27    29    20   ar
    28    15     9   ar
    29    27    22   ar
    30     3     7    1
    31     6     8    1
@<TRIPOS>MOLECULE
*****
 29 31 0 0 0
SMALL
GASTEIGER

@<TRIPOS>ATOM
      1 C          63.7875   90.0893   13.6119 C.2     1  UNL1        0.2407
      2 O          62.9044   90.0113   12.4020 O.2     1  UNL1       -0.2737
      3 N          64.9021   91.0918   13.6635 N.am    1  UNL1       -0.2387
      4 C          65.1336   92.0163   12.5053 C.2     1  UNL1        0.3102
      5 O          64.2504   91.9384   11.2953 O.2     1  UNL1       -0.2521
      6 N          66.2482   93.0188   12.5569 N.am    1  UNL1       -0.2682
      7 H          65.4818   91.1429   14.4576 H       1  UNL1        0.1591
      8 H          66.8278   93.0700   13.3510 H       1  UNL1        0.1564
      9 C          66.4796   93.9434   11.3986 C.ar    1  UNL1        0.0497
     10 C          65.9915   95.3604   11.4608 C.ar    1  UNL1        0.0145
     11 C          66.2229   96.2849   10.3026 C.ar    1  UNL1        0.0036
     12 C          66.9424   95.7925    9.0820 C.ar    1  UNL1        0.0294
     13 C          67.4305   94.3755    9.0198 C.ar    1  UNL1        0.1373
     14 F          68.1500   93.8831    7.7991 F       1  UNL1       -0.2045
     15 C          67.1991   93.4509   10.1780 C.ar    1  UNL1        0.0191
     16 C          67.6872   92.0339   10.1157 C.3     1  UNL1        0.0347
     17 C          63.5561   89.1648   14.7701 C.3     1  UNL1        0.1488
     18 S          64.4315   87.9609   14.9554 S.3     1  UNL1       -0.0840
     19 C          63.1821   86.6483   17.3463 C.3     1  UNL1        0.0543
     20 C          63.2236   85.9277   16.0313 C.ar    1  UNL1        0.0828
     21 N          62.6405   84.5509   15.9118 N.ar    1  UNL1       -0.2461
     22 C          62.6821   83.8303   14.5969 C.ar    1  UNL1        0.0986
     23 C          62.0990   82.4535   14.4774 C.ar    1  UNL1        0.0206
     24 C          62.1406   81.7329   13.1625 C.ar    1  UNL1        0.0016
     25 C          62.7653   82.3892   11.9670 C.ar    1  UNL1        0.0016
     26 C          63.3484   83.7660   12.0865 C.ar    1  UNL1        0.0207
     27 C          63.3068   84.4865   13.4014 C.ar    1  UNL1        0.0994
     28 N          63.8899   85.8634   13.5209 N.ar    1  UNL1       -0.2364
     29 C          63.8483   86.5840   14.8359 C.ar    1  UNL1        0.1206
@<TRIPOS>BOND
     1    19    20    1
     2    20    21   ar
     3    21    22   ar
     4    22    23   ar
     5    23    24   ar
     6    24    25   ar
     7    25    26   ar
     8    26    27   ar
     9    27    28   ar
    10    28    29   ar
    11    29    18    1
    12    18    17    1
    13    17     1    1
    14     1     2    2
    15     1     3   am
    16     3     4   am
    17     4     5    2
    18     4     6   am
    19     6     9    1
    20     9    10   ar
    21    10    11   ar
    22    11    12   ar
    23    12    13   ar
    24    13    14    1
    25    13    15   ar
    26    15    16    1
    27    29    20   ar
    28    15     9   ar
    29    27    22   ar
    30     3     7    1
    31     6     8    1
@<TRIPOS>MOLECULE
*****
 29 31 0 0 0
SMALL
GASTEIGER

@<TRIPOS>ATOM
      1 C          62.9559   86.9096   16.5626 C.2     1  UNL1        0.2407
      2 O          61.7090   86.2979   17.1291 O.2     1  UNL1       -0.2737
      3 N          63.7197   86.1958   15.4869 N.am    1  UNL1       -0.2387
      4 C          63.2365   84.8702   14.9777 C.2     1  UNL1        0.3102
      5 O          61.9896   84.2583   15.5443 O.2     1  UNL1       -0.2521
      6 N          64.0003   84.1563   13.9021 N.am    1  UNL1       -0.2682
      7 H          64.5380   86.5973   15.1151 H       1  UNL1        0.1591
      8 H          64.8187   84.5579   13.5302 H       1  UNL1        0.1564
      9 C          63.5171   82.8306   13.3929 C.ar    1  UNL1        0.0497
     10 C          62.9655   81.8156   14.3497 C.ar    1  UNL1        0.0145
     11 C          62.4823   80.4900   13.8406 C.ar    1  UNL1        0.0036
     12 C          62.5508   80.1794   12.3747 C.ar    1  UNL1        0.0294
     13 C          63.1023   81.1945   11.4179 C.ar    1  UNL1        0.1373
     14 F          63.1707   80.8838    9.9520 F       1  UNL1       -0.2045
     15 C          63.5855   82.5201   11.9270 C.ar    1  UNL1        0.0191
     16 C          64.1371   83.5351   10.9702 C.3     1  UNL1        0.0347
     17 C          63.4390   88.2353   17.0718 C.3     1  UNL1        0.1488
     18 S          62.7862   89.5018   16.6032 S.3     1  UNL1       -0.0840
     19 C          64.7134   91.7996   16.5228 C.3     1  UNL1        0.0543
     20 C          64.1425   91.2545   15.2472 C.ar    1  UNL1        0.0828
     21 N          64.5352   91.8583   13.9314 N.ar    1  UNL1       -0.2461
     22 C          63.9643   91.3133   12.6558 C.ar    1  UNL1        0.0986
     23 C          64.3570   91.9171   11.3401 C.ar    1  UNL1        0.0206
     24 C          63.7861   91.3721   10.0646 C.ar    1  UNL1        0.0016
     25 C          62.8225   90.2232   10.1048 C.ar    1  UNL1        0.0016
     26 C          62.4298   89.6194   11.4205 C.ar    1  UNL1        0.0207
     27 C          63.0007   90.1644   12.6960 C.ar    1  UNL1        0.0994
     28 N          62.6080   89.5606   14.0118 N.ar    1  UNL1       -0.2364
     29 C          63.1789   90.1057   15.2874 C.ar    1  UNL1        0.1206
@<TRIPOS>BOND
     1    19    20    1
     2    20    21   ar
     3    21    22   ar
     4    22    23   ar
     5    23    24   ar
     6    24    25   ar
     7    25    26   ar
     8    26    27   ar
     9    27    28   ar
    10    28    29   ar
    11    29    18    1
    12    18    17    1
    13    17     1    1
    14     1     2    2
    15     1     3   am
    16     3     4   am
    17     4     5    2
    18     4     6   am
    19     6     9    1
    20     9    10   ar
    21    10    11   ar
    22    11    12   ar
    23    12    13   ar
    24    13    14    1
    25    13    15   ar
    26    15    16    1
    27    29    20   ar
    28    15     9   ar
    29    27    22   ar
    30     3     7    1
    31     6     8    1
@<TRIPOS>MOLECULE
*****
 29 31 0 0 0
SMALL
GASTEIGER

@<TRIPOS>ATOM
      1 C          62.3322   89.2618   11.0609 C.2     1  UNL1        0.2407
      2 O          61.6155   88.7528    9.8456 O.2     1  UNL1       -0.2737
      3 N          62.8866   88.2948   12.0647 N.am    1  UNL1       -0.2387
      4 C          62.7243   86.8187   11.8531 C.2     1  UNL1        0.3102
      5 O          62.0075   86.3096   10.6377 O.2     1  UNL1       -0.2521
      6 N          63.2787   85.8517   12.8568 N.am    1  UNL1       -0.2682
      7 H          63.3570   88.6290   12.8624 H       1  UNL1        0.1591
      8 H          63.7491   86.1859   13.6545 H       1  UNL1        0.1564
      9 C          63.1164   84.3756   12.6452 C.ar    1  UNL1        0.0497
     10 C          63.5264   83.7552   11.3425 C.ar    1  UNL1        0.0145
     11 C          63.3641   82.2791   11.1309 C.ar    1  UNL1        0.0036
     12 C          62.7918   81.4235   12.2218 C.ar    1  UNL1        0.0294
     13 C          62.3817   82.0439   13.5245 C.ar    1  UNL1        0.1373
     14 F          61.8093   81.1882   14.6155 F       1  UNL1       -0.2045
     15 C          62.5440   83.5200   13.7362 C.ar    1  UNL1        0.0191
     16 C          62.1339   84.1404   15.0388 C.3     1  UNL1        0.0347
     17 C          62.4945   90.7379   11.2725 C.3     1  UNL1        0.1488
     18 S          63.7317   91.4336   10.7874 S.3     1  UNL1       -0.0840
     19 C          66.1925   92.8502    9.8190 C.3     1  UNL1        0.0543
     20 C          65.9850   92.6262   11.2876 C.ar    1  UNL1        0.0828
     21 N          67.0079   93.1106   12.2720 N.ar    1  UNL1       -0.2461
     22 C          66.8005   92.8866   13.7406 C.ar    1  UNL1        0.0986
     23 C          67.8234   93.3709   14.7250 C.ar    1  UNL1        0.0206
     24 C          67.6160   93.1469   16.1936 C.ar    1  UNL1        0.0016
     25 C          66.3856   92.4386   16.6778 C.ar    1  UNL1        0.0016
     26 C          65.3627   91.9543   15.6934 C.ar    1  UNL1        0.0207
     27 C          65.5702   92.1783   14.2249 C.ar    1  UNL1        0.0994
     28 N          64.5472   91.6939   13.2404 N.ar    1  UNL1       -0.2364
     29 C          64.7547   91.9179   11.7718 C.ar    1  UNL1        0.1206
@<TRIPOS>BOND
     1    19    20    1
     2    20    21   ar
     3    21    22   ar
     4    22    23   ar
     5    23    24   ar
     6    24    25   ar
     7    25    26   ar
     8    26    27   ar
     9    27    28   ar
    10    28    29   ar
    11    29    18    1
    12    18    17    1
    13    17     1    1
    14     1     2    2
    15     1     3   am
    16     3     4   am
    17     4     5    2
    18     4     6   am
    19     6     9    1
    20     9    10   ar
    21    10    11   ar
    22    11    12   ar
    23    12    13   ar
    24    13    14    1
    25    13    15   ar
    26    15    16    1
    27    29    20   ar
    28    15     9   ar
    29    27    22   ar
    30     3     7    1
    31     6     8    1
@<TRIPOS>MOLECULE
*****
 29 31 0 0 0
SMALL
GASTEIGER

@<TRIPOS>ATOM
      1 C          61.6165   90.1034   12.3058 C.2     1  UNL1        0.2407
      2 O          61.3421   89.6843   13.7197 O.2     1  UNL1       -0.2737
      3 N          62.8957   90.8102   11.9679 N.am    1  UNL1       -0.2387
      4 C          63.9004   91.0980   13.0438 C.2     1  UNL1        0.3102
      5 O          63.6260   90.6789   14.4578 O.2     1  UNL1       -0.2521
      6 N          65.1795   91.8048   12.7059 N.am    1  UNL1       -0.2682
      7 H          63.0758   91.0852   11.0399 H       1  UNL1        0.1591
      8 H          65.3596   92.0798   11.7779 H       1  UNL1        0.1564
      9 C          66.1843   92.0926   13.7819 C.ar    1  UNL1        0.0497
     10 C          65.7233   92.3959   15.1768 C.ar    1  UNL1        0.0145
     11 C          66.7280   92.6836   16.2528 C.ar    1  UNL1        0.0036
     12 C          68.1936   92.6681   15.9339 C.ar    1  UNL1        0.0294
     13 C          68.6546   92.3647   14.5391 C.ar    1  UNL1        0.1373
     14 F          70.1203   92.3492   14.2203 F       1  UNL1       -0.2045
     15 C          67.6499   92.0770   13.4631 C.ar    1  UNL1        0.0191
     16 C          68.1109   91.7736   12.0683 C.3     1  UNL1        0.0347
     17 C          60.6118   89.8156   11.2299 C.3     1  UNL1        0.1488
     18 S          60.0411   88.4359   11.0863 S.3     1  UNL1       -0.0840
     19 C          60.4030   87.7064    8.1989 C.3     1  UNL1        0.0543
     20 C          61.1143   86.9260    9.2645 C.ar    1  UNL1        0.0828
     21 N          62.0064   85.7811    8.8864 N.ar    1  UNL1       -0.2461
     22 C          62.7176   85.0007    9.9519 C.ar    1  UNL1        0.0986
     23 C          63.6098   83.8558    9.5738 C.ar    1  UNL1        0.0206
     24 C          64.3209   83.0755   10.6393 C.ar    1  UNL1        0.0016
     25 C          64.1400   83.4403   12.0830 C.ar    1  UNL1        0.0016
     26 C          63.2478   84.5853   12.4611 C.ar    1  UNL1        0.0207
     27 C          62.5367   85.3655   11.3956 C.ar    1  UNL1        0.0994
     28 N          61.6445   86.5106   11.7737 N.ar    1  UNL1       -0.2364
     29 C          60.9333   87.2908   10.7082 C.ar    1  UNL1        0.1206
@<TRIPOS>BOND
     1    19    20    1
     2    20    21   ar
     3    21    22   ar
     4    22    23   ar
     5    23    24   ar
     6    24    25   ar
     7    25    26   ar
     8    26    27   ar
     9    27    28   ar
    10    28    29   ar
    11    29    18    1
    12    18    17    1
    13    17     1    1
    14     1     2    2
    15     1     3   am
    16     3     4   am
    17     4     5    2
    18     4     6   am
    19     6     9    1
    20     9    10   ar
    21    10    11   ar
    22    11    12   ar
    23    12    13   ar
    24    13    14    1
    25    13    15   ar
    26    15    16    1
    27    29    20   ar
    28    15     9   ar
    29    27    22   ar
    30     3     7    1
    31     6     8    1
@<TRIPOS>MOLECULE
*****
 29 31 0 0 0
SMALL
GASTEIGER

@<TRIPOS>ATOM
      1 C          64.0784   88.0117   14.9081 C.2     1  UNL1        0.2407
      2 O          63.4761   87.6005   16.2188 O.2     1  UNL1       -0.2737
      3 N          64.1343   87.0367   13.7696 N.am    1  UNL1       -0.2387
      4 C          63.5879   85.6505   13.9418 C.2     1  UNL1        0.3102
      5 O          62.9856   85.2392   15.2526 O.2     1  UNL1       -0.2521
      6 N          63.6438   84.6755   12.8033 N.am    1  UNL1       -0.2682
      7 H          64.5296   87.3067   12.9093 H       1  UNL1        0.1591
      8 H          64.0391   84.9454   11.9430 H       1  UNL1        0.1564
      9 C          63.0973   83.2891   12.9755 C.ar    1  UNL1        0.0497
     10 C          62.3738   82.9195   14.2364 C.ar    1  UNL1        0.0145
     11 C          61.8274   81.5333   14.4088 C.ar    1  UNL1        0.0036
     12 C          62.0045   80.5167   13.3202 C.ar    1  UNL1        0.0294
     13 C          62.7280   80.8863   12.0593 C.ar    1  UNL1        0.1373
     14 F          62.9051   79.8696   10.9706 F       1  UNL1       -0.2045
     15 C          63.2744   82.2725   11.8869 C.ar    1  UNL1        0.0191
     16 C          63.9979   82.6421   10.6260 C.3     1  UNL1        0.0347
     17 C          64.6248   89.3980   14.7358 C.3     1  UNL1        0.1488
     18 S          63.7643   90.4753   14.1449 S.3     1  UNL1       -0.0840
     19 C          64.7120   92.0364   11.7649 C.3     1  UNL1        0.0543
     20 C          63.5916   91.0499   11.6171 C.ar    1  UNL1        0.0828
     21 N          62.9451   90.8441   10.2793 N.ar    1  UNL1       -0.2461
     22 C          61.8248   89.8576   10.1316 C.ar    1  UNL1        0.0986
     23 C          61.1783   89.6517    8.7938 C.ar    1  UNL1        0.0206
     24 C          60.0581   88.6653    8.6461 C.ar    1  UNL1        0.0016
     25 C          59.5843   87.8847    9.8361 C.ar    1  UNL1        0.0016
     26 C          60.2307   88.0905   11.1739 C.ar    1  UNL1        0.0207
     27 C          61.3510   89.0770   11.3216 C.ar    1  UNL1        0.0994
     28 N          61.9975   89.2829   12.6594 N.ar    1  UNL1       -0.2364
     29 C          63.1178   90.2693   12.8071 C.ar    1  UNL1        0.1206
@<TRIPOS>BOND
     1    19    20    1
     2    20    21   ar
     3    21    22   ar
     4    22    23   ar
     5    23    24   ar
     6    24    25   ar
     7    25    26   ar
     8    26    27   ar
     9    27    28   ar
    10    28    29   ar
    11    29    18    1
    12    18    17    1
    13    17     1    1
    14     1     2    2
    15     1     3   am
    16     3     4   am
    17     4     5    2
    18     4     6   am
    19     6     9    1
    20     9    10   ar
    21    10    11   ar
    22    11    12   ar
    23    12    13   ar
    24    13    14    1
    25    13    15   ar
    26    15    16    1
    27    29    20   ar
    28    15     9   ar
    29    27    22   ar
    30     3     7    1
    31     6     8    1
@<TRIPOS>MOLECULE
*****
 29 31 0 0 0
SMALL
GASTEIGER

@<TRIPOS>ATOM
      1 C          63.6437   88.7304   13.8947 C.2     1  UNL1        0.2407
      2 O          62.6905   88.9016   12.7493 O.2     1  UNL1       -0.2737
      3 N          64.1730   87.3682   14.2329 N.am    1  UNL1       -0.2387
      4 C          63.7490   86.1772   13.4257 C.2     1  UNL1        0.3102
      5 O          62.7957   86.3483   12.2802 O.2     1  UNL1       -0.2521
      6 N          64.2782   84.8150   13.7638 N.am    1  UNL1       -0.2682
      7 H          64.7986   87.2559   14.9847 H       1  UNL1        0.1591
      8 H          64.9038   84.7027   14.5156 H       1  UNL1        0.1564
      9 C          63.8541   83.6240   12.9566 C.ar    1  UNL1        0.0497
     10 C          64.3998   83.4223   11.5740 C.ar    1  UNL1        0.0145
     11 C          63.9758   82.2313   10.7667 C.ar    1  UNL1        0.0036
     12 C          63.0061   81.2420   11.3420 C.ar    1  UNL1        0.0294
     13 C          62.4605   81.4437   12.7246 C.ar    1  UNL1        0.1373
     14 F          61.4908   80.4543   13.2999 F       1  UNL1       -0.2045
     15 C          62.8845   82.6347   13.5319 C.ar    1  UNL1        0.0191
     16 C          62.3388   82.8364   14.9145 C.3     1  UNL1        0.0347
     17 C          64.0677   89.9214   14.7019 C.3     1  UNL1        0.1488
     18 S          65.4706   90.4410   14.5922 S.3     1  UNL1       -0.0840
     19 C          66.4213   92.7776   16.2159 C.3     1  UNL1        0.0543
     20 C          66.2074   92.9281   14.7388 C.ar    1  UNL1        0.0828
     21 N          66.4689   94.2468   14.0737 N.ar    1  UNL1       -0.2461
     22 C          66.2551   94.3973   12.5966 C.ar    1  UNL1        0.0986
     23 C          66.5166   95.7161   11.9314 C.ar    1  UNL1        0.0206
     24 C          66.3028   95.8665   10.4544 C.ar    1  UNL1        0.0016
     25 C          65.8274   94.6982    9.6426 C.ar    1  UNL1        0.0016
     26 C          65.5659   93.3795   10.3077 C.ar    1  UNL1        0.0207
     27 C          65.7798   93.2290   11.7847 C.ar    1  UNL1        0.0994
     28 N          65.5183   91.9102   12.4499 N.ar    1  UNL1       -0.2364
     29 C          65.7321   91.7598   13.9269 C.ar    1  UNL1        0.1206
@<TRIPOS>BOND
     1    19    20    1
     2    20    21   ar
     3    21    22   ar
     4    22    23   ar
     5    23    24   ar
     6    24    25   ar
     7    25    26   ar
     8    26    27   ar
     9    27    28   ar
    10    28    29   ar
    11    29    18    1
    12    18    17    1
    13    17     1    1
    14     1     2    2
    15     1     3   am
    16     3     4   am
    17     4     5    2
    18     4     6   am
    19     6     9    1
    20     9    10   ar
    21    10    11   ar
    22    11    12   ar
    23    12    13   ar
    24    13    14    1
    25    13    15   ar
    26    15    16    1
    27    29    20   ar
    28    15     9   ar
    29    27    22   ar
    30     3     7    1
    31     6     8    1
@<TRIPOS>MOLECULE
*****
 29 31 0 0 0
SMALL
GASTEIGER

@<TRIPOS>ATOM
      1 C          63.3288   89.9645   12.7010 C.2     1  UNL1        0.2407
      2 O          63.5030   90.9213   11.5591 O.2     1  UNL1       -0.2737
      3 N          62.6482   88.6465   12.4781 N.am    1  UNL1       -0.2387
      4 C          62.1418   88.2853   11.1131 C.2     1  UNL1        0.3102
      5 O          62.3160   89.2422    9.9711 O.2     1  UNL1       -0.2521
      6 N          61.4612   86.9674   10.8902 N.am    1  UNL1       -0.2682
      7 H          62.5339   88.0185   13.2276 H       1  UNL1        0.1591
      8 H          61.3468   86.3394   11.6397 H       1  UNL1        0.1564
      9 C          60.9547   86.6062    9.5252 C.ar    1  UNL1        0.0497
     10 C          59.6343   87.1365    9.0506 C.ar    1  UNL1        0.0145
     11 C          59.1278   86.7754    7.6857 C.ar    1  UNL1        0.0036
     12 C          59.9419   85.8841    6.7953 C.ar    1  UNL1        0.0294
     13 C          61.2623   85.3538    7.2698 C.ar    1  UNL1        0.1373
     14 F          62.0763   84.4624    6.3794 F       1  UNL1       -0.2045
     15 C          61.7688   85.7149    8.6348 C.ar    1  UNL1        0.0191
     16 C          63.0892   85.1846    9.1093 C.3     1  UNL1        0.0347
     17 C          63.8352   90.3256   14.0660 C.3     1  UNL1        0.1488
     18 S          64.6346   89.3325   14.8564 S.3     1  UNL1       -0.0840
     19 C          63.0820   88.6517   17.3314 C.3     1  UNL1        0.0543
     20 C          63.3381   87.5994   16.2935 C.ar    1  UNL1        0.0828
     21 N          62.8179   86.2068   16.4932 N.ar    1  UNL1       -0.2461
     22 C          63.0739   85.1545   15.4553 C.ar    1  UNL1        0.0986
     23 C          62.5537   83.7619   15.6550 C.ar    1  UNL1        0.0206
     24 C          62.8098   82.7096   14.6171 C.ar    1  UNL1        0.0016
     25 C          63.5861   83.0500   13.3796 C.ar    1  UNL1        0.0016
     26 C          64.1063   84.4426   13.1799 C.ar    1  UNL1        0.0207
     27 C          63.8502   85.4949   14.2178 C.ar    1  UNL1        0.0994
     28 N          64.3705   86.8876   14.0181 N.ar    1  UNL1       -0.2364
     29 C          64.1144   87.9398   15.0560 C.ar    1  UNL1        0.1206
@<TRIPOS>BOND
     1    19    20    1
     2    20    21   ar
     3    21    22   ar
     4    22    23   ar
     5    23    24   ar
     6    24    25   ar
     7    25    26   ar
     8    26    27   ar
     9    27    28   ar
    10    28    29   ar
    11    29    18    1
    12    18    17    1
    13    17     1    1
    14     1     2    2
    15     1     3   am
    16     3     4   am
    17     4     5    2
    18     4     6   am
    19     6     9    1
    20     9    10   ar
    21    10    11   ar
    22    11    12   ar
    23    12    13   ar
    24    13    14    1
    25    13    15   ar
    26    15    16    1
    27    29    20   ar
    28    15     9   ar
    29    27    22   ar
    30     3     7    1
    31     6     8    1
@<TRIPOS>MOLECULE
*****
 29 31 0 0 0
SMALL
GASTEIGER

@<TRIPOS>ATOM
      1 C          61.4604   90.3914   11.0946 C.2     1  UNL1        0.2407
      2 O          62.2621   90.7715    9.8852 O.2     1  UNL1       -0.2737
      3 N          62.0675   90.5011   12.4618 N.am    1  UNL1       -0.2387
      4 C          63.4764   90.9911   12.6196 C.2     1  UNL1        0.3102
      5 O          64.2782   91.3713   11.4102 O.2     1  UNL1       -0.2521
      6 N          64.0836   91.1009   13.9869 N.am    1  UNL1       -0.2682
      7 H          61.5413   90.2516   13.2556 H       1  UNL1        0.1591
      8 H          63.5574   90.8514   14.7806 H       1  UNL1        0.1564
      9 C          65.4925   91.5909   14.1446 C.ar    1  UNL1        0.0497
     10 C          66.4527   91.4958   12.9961 C.ar    1  UNL1        0.0145
     11 C          67.8616   91.9857   13.1539 C.ar    1  UNL1        0.0036
     12 C          68.3103   92.5708   14.4601 C.ar    1  UNL1        0.0294
     13 C          67.3502   92.6658   15.6086 C.ar    1  UNL1        0.1373
     14 F          67.7990   93.2509   16.9149 F       1  UNL1       -0.2045
     15 C          65.9413   92.1759   15.4509 C.ar    1  UNL1        0.0191
     16 C          64.9811   92.2710   16.5994 C.3     1  UNL1        0.0347
     17 C          60.0515   89.9014   10.9368 C.3     1  UNL1        0.1488
     18 S          59.7234   88.4624   11.2044 S.3     1  UNL1       -0.0840
     19 C          60.0921   87.9561    8.2705 C.3     1  UNL1        0.0543
     20 C          60.8395   87.1288    9.2741 C.ar    1  UNL1        0.0828
     21 N          61.7712   86.0485    8.8107 N.ar    1  UNL1       -0.2461
     22 C          62.5187   85.2213    9.8143 C.ar    1  UNL1        0.0986
     23 C          63.4504   84.1410    9.3509 C.ar    1  UNL1        0.0206
     24 C          64.1978   83.3138   10.3544 C.ar    1  UNL1        0.0016
     25 C          64.0135   83.5670   11.8214 C.ar    1  UNL1        0.0016
     26 C          63.0818   84.6473   12.2848 C.ar    1  UNL1        0.0207
     27 C          62.3344   85.4745   11.2812 C.ar    1  UNL1        0.0994
     28 N          61.4026   86.5548   11.7446 N.ar    1  UNL1       -0.2364
     29 C          60.6552   87.3820   10.7410 C.ar    1  UNL1        0.1206
@<TRIPOS>BOND
     1    19    20    1
     2    20    21   ar
     3    21    22   ar
     4    22    23   ar
     5    23    24   ar
     6    24    25   ar
     7    25    26   ar
     8    26    27   ar
     9    27    28   ar
    10    28    29   ar
    11    29    18    1
    12    18    17    1
    13    17     1    1
    14     1     2    2
    15     1     3   am
    16     3     4   am
    17     4     5    2
    18     4     6   am
    19     6     9    1
    20     9    10   ar
    21    10    11   ar
    22    11    12   ar
    23    12    13   ar
    24    13    14    1
    25    13    15   ar
    26    15    16    1
    27    29    20   ar
    28    15     9   ar
    29    27    22   ar
    30     3     7    1
    31     6     8    1
