@<TRIPOS>MOLECULE
*****
 36 41 0 0 0
SMALL
GASTEIGER

@<TRIPOS>ATOM
      1 C          62.3541   90.5013   10.5696 C.3     1  UNL1        0.0311
      2 C          62.2899   89.0601   10.9806 C.3     1  UNL1        0.1491
      3 C          63.2063   89.8950   11.8249 C.3     1  UNL1        0.1220
      4 N          63.9570   89.2681   12.9622 N.am    1  UNL1       -0.2600
      5 C          64.8736   90.1030   13.8067 C.2     1  UNL1        0.3088
      6 O          65.6242   89.4762   14.9439 O.2     1  UNL1       -0.2522
      7 N          65.0393   91.5648   13.5138 N.am    1  UNL1       -0.2534
      8 C          63.7913   87.8064   13.2551 C.3     1  UNL1        0.1165
      9 C          62.8748   86.9715   12.4107 C.3     1  UNL1        0.1169
     10 N          62.1241   87.5984   11.2735 N.am    1  UNL1       -0.2555
     11 C          61.1574   87.0325   10.2758 C.2     1  UNL1        0.3133
     12 O          60.7023   85.6051   10.2008 O.2     1  UNL1       -0.2519
     13 N          60.7258   88.1444    9.3663 N.am    1  UNL1       -0.2141
     14 C          61.4257   89.3976    9.8019 C.2     1  UNL1        0.2502
     15 O          61.2859   90.7507    9.1698 O.2     1  UNL1       -0.2726
     16 H          64.5466   91.9762   12.7673 H       1  UNL1        0.1578
     17 C          65.9558   92.3997   14.3581 C.ar    1  UNL1        0.1384
     18 C          66.2926   92.1563   15.7994 C.ar    1  UNL1        0.0570
     19 C          67.2413   93.2307   16.2416 C.ar    1  UNL1        0.1234
     20 N          67.4909   94.1382   15.0735 N.ar    1  UNL1       -0.1623
     21 N          66.6964   93.6245   13.9095 N.ar    1  UNL1       -0.2159
     22 C          66.6506   94.2295   12.5377 C.ar    1  UNL1        0.0842
     23 C          66.3815   95.6960   12.3734 C.ar    1  UNL1        0.0192
     24 C          66.3356   96.3011   11.0016 C.ar    1  UNL1        0.0015
     25 C          66.5589   95.4395    9.7941 C.ar    1  UNL1        0.0001
     26 C          66.8279   93.9731    9.9584 C.ar    1  UNL1        0.0015
     27 C          66.8738   93.3680   11.3302 C.ar    1  UNL1        0.0192
     28 C          59.7632   88.0243    8.2222 C.3     1  UNL1        0.0883
     29 C          58.7819   87.2123    7.4299 C.3     1  UNL1        0.0267
     30 C          59.0774   88.6283    7.0328 C.3     1  UNL1        0.0427
     31 C          58.8519   89.7945    6.1167 C.ar    1  UNL1       -0.0208
     32 C          57.4555   90.2501    5.8123 C.ar    1  UNL1       -0.0042
     33 C          57.2301   91.4163    4.8962 C.ar    1  UNL1       -0.0003
     34 C          58.4010   92.1269    4.2846 C.ar    1  UNL1       -0.0000
     35 C          59.7973   91.6713    4.5890 C.ar    1  UNL1       -0.0003
     36 C          60.0228   90.5051    5.5051 C.ar    1  UNL1       -0.0042
@<TRIPOS>BOND
     1     2     1    1
     2     2     3    1
     3     3     4    1
     4     4     5   am
     5     5     6    2
     6     5     7   am
     7     7    17    1
     8    17    18   ar
     9    18    19   ar
    10    19    20   ar
    11    20    21   ar
    12    21    22    1
    13    22    23   ar
    14    23    24   ar
    15    24    25   ar
    16    25    26   ar
    17    26    27   ar
    18     4     8    1
    19     8     9    1
    20     9    10    1
    21    10    11   am
    22    11    12    2
    23    11    13   am
    24    28    13    1
    25    28    29    1
    26    29    30    1
    27    30    31    1
    28    31    32   ar
    29    32    33   ar
    30    33    34   ar
    31    34    35   ar
    32    35    36   ar
    33    13    14   am
    34    14    15    2
    35    10     2    1
    36    30    28    1
    37    36    31   ar
    38    14     2    1
    39    21    17   ar
    40    27    22   ar
    41     7    16    1
@<TRIPOS>MOLECULE
*****
 36 41 0 0 0
SMALL
GASTEIGER

@<TRIPOS>ATOM
      1 C          64.9015   89.2172   13.6203 C.3     1  UNL1        0.0311
      2 C          64.4721   89.7526   14.9541 C.3     1  UNL1        0.1491
      3 C          64.0587   88.3324   14.7049 C.3     1  UNL1        0.1220
      4 N          63.2855   87.5823   15.7487 N.am    1  UNL1       -0.2600
      5 C          62.8721   86.1620   15.4996 C.2     1  UNL1        0.3088
      6 O          62.0989   85.4119   16.5433 O.2     1  UNL1       -0.2522
      7 N          63.2318   85.4920   14.2067 N.am    1  UNL1       -0.2534
      8 C          62.9257   88.2523   17.0416 C.3     1  UNL1        0.1165
      9 C          63.3391   89.6725   17.2907 C.3     1  UNL1        0.1169
     10 N          64.1123   90.4227   16.2470 N.am    1  UNL1       -0.2555
     11 C          64.6527   91.8215   16.2102 C.2     1  UNL1        0.3133
     12 O          64.5222   92.8459   17.2980 O.2     1  UNL1       -0.2519
     13 N          65.3464   92.0159   14.8945 N.am    1  UNL1       -0.2141
     14 C          65.2348   90.7373   14.1183 C.2     1  UNL1        0.2502
     15 O          65.7887   90.4873   12.7469 O.2     1  UNL1       -0.2726
     16 H          63.7393   85.9843   13.5216 H       1  UNL1        0.1578
     17 C          62.8184   84.0718   13.9575 C.ar    1  UNL1        0.1384
     18 C          62.6078   83.0183   15.0043 C.ar    1  UNL1        0.0570
     19 C          62.2023   81.7511   14.3116 C.ar    1  UNL1        0.1234
     20 N          62.1623   82.0215   12.8366 N.ar    1  UNL1       -0.1623
     21 N          62.5431   83.4557   12.6179 N.ar    1  UNL1       -0.2159
     22 C          62.6327   84.1517   11.2921 C.ar    1  UNL1        0.0842
     23 C          61.7908   85.3636   11.0228 C.ar    1  UNL1        0.0192
     24 C          61.8805   86.0596    9.6972 C.ar    1  UNL1        0.0015
     25 C          62.8121   85.5437    8.6407 C.ar    1  UNL1        0.0001
     26 C          63.6540   84.3319    8.9100 C.ar    1  UNL1        0.0015
     27 C          63.5643   83.6358   10.2358 C.ar    1  UNL1        0.0192
     28 C          66.0315   93.2690   14.4358 C.3     1  UNL1        0.0883
     29 C          66.8210   94.5061   14.7462 C.3     1  UNL1        0.0267
     30 C          66.4286   94.2023   13.3307 C.3     1  UNL1        0.0427
     31 C          66.4314   94.5658   11.8754 C.ar    1  UNL1       -0.0208
     32 C          66.8599   93.5571   10.8512 C.ar    1  UNL1       -0.0042
     33 C          66.8627   93.9206    9.3960 C.ar    1  UNL1       -0.0003
     34 C          66.4369   95.2927    8.9648 C.ar    1  UNL1       -0.0000
     35 C          66.0083   96.3014    9.9889 C.ar    1  UNL1       -0.0003
     36 C          66.0056   95.9379   11.4443 C.ar    1  UNL1       -0.0042
@<TRIPOS>BOND
     1     2     1    1
     2     2     3    1
     3     3     4    1
     4     4     5   am
     5     5     6    2
     6     5     7   am
     7     7    17    1
     8    17    18   ar
     9    18    19   ar
    10    19    20   ar
    11    20    21   ar
    12    21    22    1
    13    22    23   ar
    14    23    24   ar
    15    24    25   ar
    16    25    26   ar
    17    26    27   ar
    18     4     8    1
    19     8     9    1
    20     9    10    1
    21    10    11   am
    22    11    12    2
    23    11    13   am
    24    28    13    1
    25    28    29    1
    26    29    30    1
    27    30    31    1
    28    31    32   ar
    29    32    33   ar
    30    33    34   ar
    31    34    35   ar
    32    35    36   ar
    33    13    14   am
    34    14    15    2
    35    10     2    1
    36    30    28    1
    37    36    31   ar
    38    14     2    1
    39    21    17   ar
    40    27    22   ar
    41     7    16    1
@<TRIPOS>MOLECULE
*****
 36 41 0 0 0
SMALL
GASTEIGER

@<TRIPOS>ATOM
      1 C          63.9978   87.0718   13.0450 C.3     1  UNL1        0.0311
      2 C          63.6196   87.1847   14.4922 C.3     1  UNL1        0.1491
      3 C          64.0536   88.4798   13.8723 C.3     1  UNL1        0.1220
      4 N          64.0794   89.7336   14.6951 N.am    1  UNL1       -0.2600
      5 C          64.5133   91.0288   14.0752 C.2     1  UNL1        0.3088
      6 O          64.5392   92.2826   14.8980 O.2     1  UNL1       -0.2522
      7 N          64.9215   91.0700   12.6324 N.am    1  UNL1       -0.2534
      8 C          63.6712   89.6924   16.1379 C.3     1  UNL1        0.1165
      9 C          63.2372   88.3973   16.7579 C.3     1  UNL1        0.1169
     10 N          63.2114   87.1434   15.9350 N.am    1  UNL1       -0.2555
     11 C          62.8328   85.7310   16.2694 C.2     1  UNL1        0.3133
     12 O          62.3626   85.2371   17.6054 O.2     1  UNL1       -0.2519
     13 N          63.0070   84.8994   15.0333 N.am    1  UNL1       -0.2141
     14 C          63.4932   85.7978   13.9350 C.2     1  UNL1        0.2502
     15 O          63.7994   85.3822   12.5265 O.2     1  UNL1       -0.2726
     16 H          64.9046   90.2470   12.0923 H       1  UNL1        0.1578
     17 C          65.3555   92.3651   12.0124 C.ar    1  UNL1        0.1384
     18 C          64.7707   92.9933   10.7822 C.ar    1  UNL1        0.0570
     19 C          65.5042   94.2758   10.5233 C.ar    1  UNL1        0.1234
     20 N          66.5424   94.4403   11.5935 N.ar    1  UNL1       -0.1623
     21 N          66.4504   93.2594   12.5138 N.ar    1  UNL1       -0.2159
     22 C          67.3036   93.0156   13.7232 C.ar    1  UNL1        0.0842
     23 C          67.1701   93.9017   14.9262 C.ar    1  UNL1        0.0192
     24 C          68.0232   93.6580   16.1356 C.ar    1  UNL1        0.0015
     25 C          69.0099   92.5281   16.1420 C.ar    1  UNL1        0.0001
     26 C          69.1434   91.6421   14.9391 C.ar    1  UNL1        0.0015
     27 C          68.2902   91.8858   13.7297 C.ar    1  UNL1        0.0192
     28 C          62.7415   83.4277   14.9162 C.3     1  UNL1        0.0883
     29 C          62.3523   82.1237   15.5470 C.3     1  UNL1        0.0267
     30 C          62.6710   82.1828   14.0824 C.3     1  UNL1        0.0427
     31 C          62.8142   81.4981   12.7555 C.ar    1  UNL1       -0.0208
     32 C          63.2227   82.2852   11.5457 C.ar    1  UNL1       -0.0042
     33 C          63.3660   81.6005   10.2188 C.ar    1  UNL1       -0.0003
     34 C          63.1007   80.1288   10.1017 C.ar    1  UNL1       -0.0000
     35 C          62.6922   79.3418   11.3114 C.ar    1  UNL1       -0.0003
     36 C          62.5489   80.0264   12.6384 C.ar    1  UNL1       -0.0042
@<TRIPOS>BOND
     1     2     1    1
     2     2     3    1
     3     3     4    1
     4     4     5   am
     5     5     6    2
     6     5     7   am
     7     7    17    1
     8    17    18   ar
     9    18    19   ar
    10    19    20   ar
    11    20    21   ar
    12    21    22    1
    13    22    23   ar
    14    23    24   ar
    15    24    25   ar
    16    25    26   ar
    17    26    27   ar
    18     4     8    1
    19     8     9    1
    20     9    10    1
    21    10    11   am
    22    11    12    2
    23    11    13   am
    24    28    13    1
    25    28    29    1
    26    29    30    1
    27    30    31    1
    28    31    32   ar
    29    32    33   ar
    30    33    34   ar
    31    34    35   ar
    32    35    36   ar
    33    13    14   am
    34    14    15    2
    35    10     2    1
    36    30    28    1
    37    36    31   ar
    38    14     2    1
    39    21    17   ar
    40    27    22   ar
    41     7    16    1
@<TRIPOS>MOLECULE
*****
 36 41 0 0 0
SMALL
GASTEIGER

@<TRIPOS>ATOM
      1 C          61.5478   90.1732   10.9112 C.3     1  UNL1        0.0311
      2 C          61.7483   88.6866   10.9101 C.3     1  UNL1        0.1491
      3 C          62.4761   89.3996   12.0109 C.3     1  UNL1        0.1220
      4 N          63.3108   88.6218   12.9847 N.am    1  UNL1       -0.2600
      5 C          64.0387   89.3347   14.0856 C.2     1  UNL1        0.3088
      6 O          64.8734   88.5569   15.0593 O.2     1  UNL1       -0.2522
      7 N          63.9319   90.8255   14.2126 N.am    1  UNL1       -0.2534
      8 C          63.4176   87.1310   12.8576 C.3     1  UNL1        0.1165
      9 C          62.6898   86.4180   11.7568 C.3     1  UNL1        0.1169
     10 N          61.8551   87.1958   10.7830 N.am    1  UNL1       -0.2555
     11 C          61.0301   86.7708    9.6046 C.2     1  UNL1        0.3133
     12 O          60.8529   85.3645    9.1136 O.2     1  UNL1       -0.2519
     13 N          60.4134   87.9988    9.0033 N.am    1  UNL1       -0.2141
     14 C          60.8573   89.1829    9.8101 C.2     1  UNL1        0.2502
     15 O          60.4769   90.6123    9.5608 O.2     1  UNL1       -0.2726
     16 H          63.3841   91.3360   13.5735 H       1  UNL1        0.1578
     17 C          64.6598   91.5385   15.3134 C.ar    1  UNL1        0.1384
     18 C          64.1525   91.7582   16.7078 C.ar    1  UNL1        0.0570
     19 C          65.2019   92.5124   17.4693 C.ar    1  UNL1        0.1234
     20 N          66.3578   92.7589   16.5455 N.ar    1  UNL1       -0.1623
     21 N          66.0227   92.1570   15.2131 N.ar    1  UNL1       -0.2159
     22 C          66.8970   92.1710   13.9944 C.ar    1  UNL1        0.0842
     23 C          68.3175   91.6978   14.0849 C.ar    1  UNL1        0.0192
     24 C          69.1918   91.7118   12.8662 C.ar    1  UNL1        0.0015
     25 C          68.6456   92.1991   11.5569 C.ar    1  UNL1        0.0001
     26 C          67.2252   92.6723   11.4663 C.ar    1  UNL1        0.0015
     27 C          66.3508   92.6583   12.6851 C.ar    1  UNL1        0.0192
     28 C          59.5113   88.0363    7.8055 C.3     1  UNL1        0.0883
     29 C          58.5118   87.3654    6.9106 C.3     1  UNL1        0.0267
     30 C          58.9482   88.7720    6.6258 C.3     1  UNL1        0.0427
     31 C          58.8751   90.0088    5.7803 C.ar    1  UNL1       -0.0208
     32 C          57.5448   90.6317    5.4760 C.ar    1  UNL1       -0.0042
     33 C          57.4717   91.8685    4.6305 C.ar    1  UNL1       -0.0003
     34 C          58.7288   92.4825    4.0893 C.ar    1  UNL1       -0.0000
     35 C          60.0589   91.8597    4.3936 C.ar    1  UNL1       -0.0003
     36 C          60.1321   90.6228    5.2392 C.ar    1  UNL1       -0.0042
@<TRIPOS>BOND
     1     2     1    1
     2     2     3    1
     3     3     4    1
     4     4     5   am
     5     5     6    2
     6     5     7   am
     7     7    17    1
     8    17    18   ar
     9    18    19   ar
    10    19    20   ar
    11    20    21   ar
    12    21    22    1
    13    22    23   ar
    14    23    24   ar
    15    24    25   ar
    16    25    26   ar
    17    26    27   ar
    18     4     8    1
    19     8     9    1
    20     9    10    1
    21    10    11   am
    22    11    12    2
    23    11    13   am
    24    28    13    1
    25    28    29    1
    26    29    30    1
    27    30    31    1
    28    31    32   ar
    29    32    33   ar
    30    33    34   ar
    31    34    35   ar
    32    35    36   ar
    33    13    14   am
    34    14    15    2
    35    10     2    1
    36    30    28    1
    37    36    31   ar
    38    14     2    1
    39    21    17   ar
    40    27    22   ar
    41     7    16    1
@<TRIPOS>MOLECULE
*****
 36 41 0 0 0
SMALL
GASTEIGER

@<TRIPOS>ATOM
      1 C          59.3075   93.9126   -0.9147 C.3     1  UNL1        0.0311
      2 C          60.7473   94.1383   -1.2699 C.3     1  UNL1        0.1491
      3 C          59.7797   94.6177   -2.3110 C.3     1  UNL1        0.1220
      4 N          60.2877   95.2561   -3.5696 N.am    1  UNL1       -0.2600
      5 C          59.3200   95.7355   -4.6108 C.2     1  UNL1        0.3088
      6 O          59.8280   96.3739   -5.8695 O.2     1  UNL1       -0.2522
      7 N          57.8444   95.5764   -4.3932 N.am    1  UNL1       -0.2534
      8 C          61.7632   95.4152   -3.7873 C.3     1  UNL1        0.1165
      9 C          62.7309   94.9358   -2.7462 C.3     1  UNL1        0.1169
     10 N          62.2229   94.2974   -1.4875 N.am    1  UNL1       -0.2555
     11 C          62.9313   93.7327   -0.2919 C.2     1  UNL1        0.3133
     12 O          64.4166   93.6846   -0.0886 O.2     1  UNL1       -0.2519
     13 N          61.8935   93.2247    0.6646 N.am    1  UNL1       -0.2141
     14 C          60.5438   93.4754    0.0602 C.2     1  UNL1        0.2502
     15 O          59.2224   93.1247    0.6774 O.2     1  UNL1       -0.2726
     16 H          57.5111   95.1574   -3.5670 H       1  UNL1        0.1578
     17 C          56.8768   96.0558   -5.4343 C.ar    1  UNL1        0.1384
     18 C          57.1703   96.2366   -6.8941 C.ar    1  UNL1        0.0570
     19 C          55.9207   96.7310   -7.5604 C.ar    1  UNL1        0.1234
     20 N          54.8549   96.8559   -6.5123 N.ar    1  UNL1       -0.1623
     21 N          55.4458   96.4386   -5.1983 N.ar    1  UNL1       -0.2159
     22 C          54.7311   96.4092   -3.8798 C.ar    1  UNL1        0.0842
     23 C          55.4539   96.8036   -2.6260 C.ar    1  UNL1        0.0192
     24 C          54.7394   96.7743   -1.3076 C.ar    1  UNL1        0.0015
     25 C          53.3019   96.3504   -1.2429 C.ar    1  UNL1        0.0001
     26 C          52.5791   95.9559   -2.4966 C.ar    1  UNL1        0.0015
     27 C          53.2938   95.9853   -3.8151 C.ar    1  UNL1        0.0192
     28 C          62.1589   92.5793    1.9924 C.3     1  UNL1        0.0883
     29 C          63.1269   92.0726    3.0201 C.3     1  UNL1        0.0267
     30 C          61.6506   91.9682    3.2645 C.3     1  UNL1        0.0427
     31 C          60.5048   91.5552    4.1400 C.ar    1  UNL1       -0.0208
     32 C          60.6968   90.4814    5.1697 C.ar    1  UNL1       -0.0042
     33 C          59.5511   90.0683    6.0452 C.ar    1  UNL1       -0.0003
     34 C          58.2133   90.7290    5.8910 C.ar    1  UNL1       -0.0000
     35 C          58.0212   91.8027    4.8614 C.ar    1  UNL1       -0.0003
     36 C          59.1670   92.2159    3.9859 C.ar    1  UNL1       -0.0042
@<TRIPOS>BOND
     1     2     1    1
     2     2     3    1
     3     3     4    1
     4     4     5   am
     5     5     6    2
     6     5     7   am
     7     7    17    1
     8    17    18   ar
     9    18    19   ar
    10    19    20   ar
    11    20    21   ar
    12    21    22    1
    13    22    23   ar
    14    23    24   ar
    15    24    25   ar
    16    25    26   ar
    17    26    27   ar
    18     4     8    1
    19     8     9    1
    20     9    10    1
    21    10    11   am
    22    11    12    2
    23    11    13   am
    24    28    13    1
    25    28    29    1
    26    29    30    1
    27    30    31    1
    28    31    32   ar
    29    32    33   ar
    30    33    34   ar
    31    34    35   ar
    32    35    36   ar
    33    13    14   am
    34    14    15    2
    35    10     2    1
    36    30    28    1
    37    36    31   ar
    38    14     2    1
    39    21    17   ar
    40    27    22   ar
    41     7    16    1
@<TRIPOS>MOLECULE
*****
 36 41 0 0 0
SMALL
GASTEIGER

@<TRIPOS>ATOM
      1 C          44.4107   79.2361   15.6955 C.3     1  UNL1        0.0311
      2 C          44.2151   80.3777   16.6487 C.3     1  UNL1        0.1491
      3 C          44.1597   80.7737   15.2030 C.3     1  UNL1        0.1220
      4 N          43.9252   82.2065   14.8264 N.am    1  UNL1       -0.2600
      5 C          43.8698   82.6026   13.3807 C.2     1  UNL1        0.3088
      6 O          43.6353   84.0355   13.0040 O.2     1  UNL1       -0.2522
      7 N          44.0488   81.5658   12.3116 N.am    1  UNL1       -0.2534
      8 C          43.7462   83.2434   15.8955 C.3     1  UNL1        0.1165
      9 C          43.8016   82.8474   17.3412 C.3     1  UNL1        0.1169
     10 N          44.0361   81.4145   17.7178 N.am    1  UNL1       -0.2555
     11 C          44.1400   80.7306   19.0488 C.2     1  UNL1        0.3133
     12 O          44.0214   81.3905   20.3906 O.2     1  UNL1       -0.2519
     13 N          44.3832   79.2711   18.8023 N.am    1  UNL1       -0.2141
     14 C          44.4296   79.0530   17.3190 C.2     1  UNL1        0.2502
     15 O          44.6516   77.7406   16.6274 O.2     1  UNL1       -0.2726
     16 H          44.2027   80.6253   12.5588 H       1  UNL1        0.1578
     17 C          43.9934   81.9618   10.8659 C.ar    1  UNL1        0.1384
     18 C          43.6342   83.3185   10.3366 C.ar    1  UNL1        0.0570
     19 C          43.7062   83.2659    8.8392 C.ar    1  UNL1        0.1234
     20 N          44.1099   81.8765    8.4431 N.ar    1  UNL1       -0.1623
     21 N          44.2874   81.0706    9.6957 N.ar    1  UNL1       -0.2159
     22 C          44.6885   79.6269    9.7657 C.ar    1  UNL1        0.0842
     23 C          45.8775   79.1404    8.9914 C.ar    1  UNL1        0.0192
     24 C          46.2786   77.6968    9.0615 C.ar    1  UNL1        0.0015
     25 C          45.4906   76.7396    9.9058 C.ar    1  UNL1        0.0001
     26 C          44.3016   77.2260   10.6801 C.ar    1  UNL1        0.0015
     27 C          43.9005   78.6698   10.6101 C.ar    1  UNL1        0.0192
     28 C          44.5505   78.2152   19.8545 C.3     1  UNL1        0.0883
     29 C          44.2996   77.7178   21.2472 C.3     1  UNL1        0.0267
     30 C          45.0913   76.8837   20.2841 C.3     1  UNL1        0.0427
     31 C          45.8606   75.6334   19.9762 C.ar    1  UNL1       -0.0208
     32 C          45.1861   74.2965   20.0658 C.ar    1  UNL1       -0.0042
     33 C          45.9554   73.0462   19.7579 C.ar    1  UNL1       -0.0003
     34 C          47.3991   73.1327   19.3603 C.ar    1  UNL1       -0.0000
     35 C          48.0736   74.4694   19.2706 C.ar    1  UNL1       -0.0003
     36 C          47.3043   75.7198   19.5785 C.ar    1  UNL1       -0.0042
@<TRIPOS>BOND
     1     2     1    1
     2     2     3    1
     3     3     4    1
     4     4     5   am
     5     5     6    2
     6     5     7   am
     7     7    17    1
     8    17    18   ar
     9    18    19   ar
    10    19    20   ar
    11    20    21   ar
    12    21    22    1
    13    22    23   ar
    14    23    24   ar
    15    24    25   ar
    16    25    26   ar
    17    26    27   ar
    18     4     8    1
    19     8     9    1
    20     9    10    1
    21    10    11   am
    22    11    12    2
    23    11    13   am
    24    28    13    1
    25    28    29    1
    26    29    30    1
    27    30    31    1
    28    31    32   ar
    29    32    33   ar
    30    33    34   ar
    31    34    35   ar
    32    35    36   ar
    33    13    14   am
    34    14    15    2
    35    10     2    1
    36    30    28    1
    37    36    31   ar
    38    14     2    1
    39    21    17   ar
    40    27    22   ar
    41     7    16    1
@<TRIPOS>MOLECULE
*****
 36 41 0 0 0
SMALL
GASTEIGER

@<TRIPOS>ATOM
      1 C          61.5384   90.5497   10.1174 C.3     1  UNL1        0.0311
      2 C          61.5905   89.0546   10.2281 C.3     1  UNL1        0.1491
      3 C          60.7619   89.5530    9.0813 C.3     1  UNL1        0.1220
      4 N          60.0776   88.5771    8.1707 N.am    1  UNL1       -0.2600
      5 C          59.2489   89.0755    7.0239 C.2     1  UNL1        0.3088
      6 O          58.5646   88.0996    6.1133 O.2     1  UNL1       -0.2522
      7 N          59.1047   90.5498    6.7878 N.am    1  UNL1       -0.2534
      8 C          60.2218   87.1029    8.4068 C.3     1  UNL1        0.1165
      9 C          61.0504   86.6045    9.5536 C.3     1  UNL1        0.1169
     10 N          61.7347   87.5804   10.4642 N.am    1  UNL1       -0.2555
     11 C          62.6101   87.3870   11.6668 C.2     1  UNL1        0.3133
     12 O          63.0172   86.0701   12.2584 O.2     1  UNL1       -0.2519
     13 N          63.0069   88.7418   12.1740 N.am    1  UNL1       -0.2141
     14 C          62.3767   89.7724   11.2848 C.2     1  UNL1        0.2502
     15 O          62.5095   91.2597   11.4273 O.2     1  UNL1       -0.2726
     16 H          59.5539   91.1903    7.3855 H       1  UNL1        0.1578
     17 C          58.2761   91.0481    5.6411 C.ar    1  UNL1        0.1384
     18 C          56.7779   91.1018    5.5938 C.ar    1  UNL1        0.0570
     19 C          56.3761   91.6672    4.2638 C.ar    1  UNL1        0.1234
     20 N          57.6261   91.9630    3.4891 N.ar    1  UNL1       -0.1623
     21 N          58.8003   91.5804    4.3403 N.ar    1  UNL1       -0.2159
     22 C          60.2452   91.7077    3.9579 C.ar    1  UNL1        0.0842
     23 C          61.2600   90.7671    4.5371 C.ar    1  UNL1        0.0192
     24 C          62.7048   90.8944    4.1548 C.ar    1  UNL1        0.0015
     25 C          63.1348   91.9623    3.1932 C.ar    1  UNL1        0.0001
     26 C          62.1201   92.9029    2.6140 C.ar    1  UNL1        0.0015
     27 C          60.6752   92.7756    2.9964 C.ar    1  UNL1        0.0192
     28 C          63.8804   89.0174   13.3619 C.3     1  UNL1        0.0883
     29 C          64.4682   88.5814   14.6712 C.3     1  UNL1        0.0267
     30 C          64.8055   89.9310   14.1099 C.3     1  UNL1        0.0427
     31 C          65.5343   91.2375   14.2178 C.ar    1  UNL1       -0.0208
     32 C          66.1200   91.6634   15.5315 C.ar    1  UNL1       -0.0042
     33 C          66.8489   92.9699   15.6394 C.ar    1  UNL1       -0.0003
     34 C          66.9920   93.8507   14.4337 C.ar    1  UNL1       -0.0000
     35 C          66.4063   93.4249   13.1201 C.ar    1  UNL1       -0.0003
     36 C          65.6774   92.1183   13.0121 C.ar    1  UNL1       -0.0042
@<TRIPOS>BOND
     1     2     1    1
     2     2     3    1
     3     3     4    1
     4     4     5   am
     5     5     6    2
     6     5     7   am
     7     7    17    1
     8    17    18   ar
     9    18    19   ar
    10    19    20   ar
    11    20    21   ar
    12    21    22    1
    13    22    23   ar
    14    23    24   ar
    15    24    25   ar
    16    25    26   ar
    17    26    27   ar
    18     4     8    1
    19     8     9    1
    20     9    10    1
    21    10    11   am
    22    11    12    2
    23    11    13   am
    24    28    13    1
    25    28    29    1
    26    29    30    1
    27    30    31    1
    28    31    32   ar
    29    32    33   ar
    30    33    34   ar
    31    34    35   ar
    32    35    36   ar
    33    13    14   am
    34    14    15    2
    35    10     2    1
    36    30    28    1
    37    36    31   ar
    38    14     2    1
    39    21    17   ar
    40    27    22   ar
    41     7    16    1
@<TRIPOS>MOLECULE
*****
 36 41 0 0 0
SMALL
GASTEIGER

@<TRIPOS>ATOM
      1 C          58.7086   94.0930   -1.0196 C.3     1  UNL1        0.0311
      2 C          60.0976   94.2038   -1.5750 C.3     1  UNL1        0.1491
      3 C          59.0180   94.5450   -2.5589 C.3     1  UNL1        0.1220
      4 N          59.3788   94.9522   -3.9568 N.am    1  UNL1       -0.2600
      5 C          58.2992   95.2934   -4.9408 C.2     1  UNL1        0.3088
      6 O          58.6600   95.7006   -6.3387 O.2     1  UNL1       -0.2522
      7 N          56.8590   95.2273   -4.5269 N.am    1  UNL1       -0.2534
      8 C          60.8190   95.0182   -4.3707 C.3     1  UNL1        0.1165
      9 C          61.8986   94.6771   -3.3867 C.3     1  UNL1        0.1169
     10 N          61.5378   94.2699   -1.9889 N.am    1  UNL1       -0.2555
     11 C          62.3776   93.8793   -0.8089 C.2     1  UNL1        0.3133
     12 O          63.8756   93.8086   -0.7776 O.2     1  UNL1       -0.2519
     13 N          61.4563   93.5720    0.3343 N.am    1  UNL1       -0.2141
     14 C          60.0472   93.7725   -0.1392 C.2     1  UNL1        0.2502
     15 O          58.8057   93.5762    0.6793 O.2     1  UNL1       -0.2726
     16 H          56.6222   94.9601   -3.6095 H       1  UNL1        0.1578
     17 C          55.7795   95.5685   -5.5109 C.ar    1  UNL1        0.1384
     18 C          55.0078   96.8537   -5.5626 C.ar    1  UNL1        0.0570
     19 C          54.0335   96.7639   -6.6996 C.ar    1  UNL1        0.1234
     20 N          54.2030   95.4231   -7.3505 N.ar    1  UNL1       -0.1623
     21 N          55.2821   94.6843   -6.6158 N.ar    1  UNL1       -0.2159
     22 C          55.7769   93.3038   -6.9308 C.ar    1  UNL1        0.0842
     23 C          57.2315   93.0757   -7.2176 C.ar    1  UNL1        0.0192
     24 C          57.7263   91.6952   -7.5325 C.ar    1  UNL1        0.0015
     25 C          56.7666   90.5427   -7.5608 C.ar    1  UNL1        0.0001
     26 C          55.3121   90.7708   -7.2741 C.ar    1  UNL1        0.0015
     27 C          54.8172   92.1514   -6.9591 C.ar    1  UNL1        0.0192
     28 C          61.8713   93.1399    1.7094 C.3     1  UNL1        0.0883
     29 C          62.9304   92.9978    2.7621 C.3     1  UNL1        0.0267
     30 C          61.5310   92.5337    3.0386 C.3     1  UNL1        0.0427
     31 C          60.5267   91.9158    3.9656 C.ar    1  UNL1       -0.0208
     32 C          59.1155   92.4238    3.9889 C.ar    1  UNL1       -0.0042
     33 C          58.1111   91.8059    4.9159 C.ar    1  UNL1       -0.0003
     34 C          58.5179   90.6799    5.8197 C.ar    1  UNL1       -0.0000
     35 C          59.9291   90.1719    5.7964 C.ar    1  UNL1       -0.0003
     36 C          60.9335   90.7899    4.8694 C.ar    1  UNL1       -0.0042
@<TRIPOS>BOND
     1     2     1    1
     2     2     3    1
     3     3     4    1
     4     4     5   am
     5     5     6    2
     6     5     7   am
     7     7    17    1
     8    17    18   ar
     9    18    19   ar
    10    19    20   ar
    11    20    21   ar
    12    21    22    1
    13    22    23   ar
    14    23    24   ar
    15    24    25   ar
    16    25    26   ar
    17    26    27   ar
    18     4     8    1
    19     8     9    1
    20     9    10    1
    21    10    11   am
    22    11    12    2
    23    11    13   am
    24    28    13    1
    25    28    29    1
    26    29    30    1
    27    30    31    1
    28    31    32   ar
    29    32    33   ar
    30    33    34   ar
    31    34    35   ar
    32    35    36   ar
    33    13    14   am
    34    14    15    2
    35    10     2    1
    36    30    28    1
    37    36    31   ar
    38    14     2    1
    39    21    17   ar
    40    27    22   ar
    41     7    16    1
