@<TRIPOS>MOLECULE
*****
 36 39 0 0 0
SMALL
GASTEIGER

@<TRIPOS>ATOM
      1 O          61.6323   87.5964   10.9632 O.3     1  UNL1       -0.4741
      2 C          62.4956   88.7298   11.4323 C.ar    1  UNL1        0.1513
      3 C          63.3266   88.5764   12.6717 C.ar    1  UNL1        0.0688
      4 C          64.1899   89.7099   13.1408 C.ar    1  UNL1        0.1620
      5 F          65.0209   89.5566   14.3802 F       1  UNL1       -0.2026
      6 C          64.2223   90.9966   12.3706 C.ar    1  UNL1        0.1535
      7 C          63.3914   91.1499   11.1312 C.ar    1  UNL1        0.0369
      8 C          62.5280   90.0166   10.6621 C.ar    1  UNL1        0.0930
      9 CL         61.6971   90.1699    9.4227 Cl      1  UNL1       -0.0790
     10 S          65.0856   92.1300   12.8397 S.O2    1  UNL1        0.0772
     11 O          64.5205   91.9883   14.2219 O.2     1  UNL1       -0.1498
     12 O          65.6507   92.2716   11.4575 O.2     1  UNL1       -0.1498
     13 N          65.9490   93.2634   13.3089 N.pl3   1  UNL1       -0.1936
     14 H          65.7018   94.1919   13.0944 H       1  UNL1        0.1758
     15 C          67.1888   92.9820   14.1049 C.ar    1  UNL1        0.1786
     16 N          68.4270   92.3039   13.5980 N.ar    1  UNL1       -0.2214
     17 C          69.4116   92.2322   14.7274 C.ar    1  UNL1        0.1079
     18 C          68.7819   92.8660   15.9323 C.ar    1  UNL1        0.0588
     19 S          67.4081   93.3294   15.5476 S.2     1  UNL1       -0.0497
     20 C          61.6479   86.2882   11.6970 C.3     1  UNL1        0.2110
     21 N          61.8876   85.5329    8.8035 N.3     1  UNL1       -0.3218
     22 C          62.7193   84.8284    9.8339 C.3     1  UNL1        0.0588
     23 C          63.6709   83.7462    9.4177 C.3     1  UNL1        0.0206
     24 C          64.5027   83.0417   10.4481 C.3     1  UNL1        0.0271
     25 C          64.3829   83.4193   11.8948 C.2     1  UNL1       -0.0302
     26 C          63.4313   84.5015   12.3111 C.2     1  UNL1       -0.0218
     27 C          62.5995   85.2060   11.2806 C.3     1  UNL1        0.0798
     28 H          62.0956   85.1523    7.8804 H       1  UNL1        0.1188
     29 H          62.1027   86.5299    8.8166 H       1  UNL1        0.1188
     30 C          63.3114   84.8792   13.7578 C.ar    1  UNL1       -0.0040
     31 C          64.2236   85.9180   14.3398 C.ar    1  UNL1        0.0020
     32 C          64.1037   86.2957   15.7866 C.ar    1  UNL1        0.0296
     33 C          63.0717   85.6345   16.6513 C.ar    1  UNL1        0.1401
     34 F          62.9518   86.0121   18.0980 F       1  UNL1       -0.2042
     35 C          62.1595   84.5956   16.0692 C.ar    1  UNL1        0.0296
     36 C          62.2794   84.2179   14.6225 C.ar    1  UNL1        0.0020
@<TRIPOS>BOND
     1    22    21    1
     2    22    23    1
     3    23    24    1
     4    24    25    1
     5    25    26    2
     6    26    30    1
     7    30    31   ar
     8    31    32   ar
     9    32    33   ar
    10    33    34    1
    11    33    35   ar
    12    35    36   ar
    13    26    27    1
    14    27    20    1
    15    20     1    1
    16     1     2    1
    17     2     3   ar
    18     3     4   ar
    19     4     5    1
    20     4     6   ar
    21     6    10    1
    22    10    11    2
    23    10    12    2
    24    10    13    1
    25    13    15    1
    26    15    16   ar
    27    16    17   ar
    28    17    18   ar
    29    18    19   ar
    30     6     7   ar
    31     7     8   ar
    32     8     9    1
    33    27    22    1
    34     8     2   ar
    35    36    30   ar
    36    19    15   ar
    37    21    28    1
    38    21    29    1
    39    13    14    1
@<TRIPOS>MOLECULE
*****
 36 39 0 0 0
SMALL
GASTEIGER

@<TRIPOS>ATOM
      1 O          61.3145   87.6711   11.0841 O.3     1  UNL1       -0.4741
      2 C          62.2460   88.8210   11.3284 C.ar    1  UNL1        0.1513
      3 C          63.1500   88.8126   12.5254 C.ar    1  UNL1        0.0688
      4 C          64.0816   89.9627   12.7697 C.ar    1  UNL1        0.1620
      5 F          64.9856   89.9543   13.9667 F       1  UNL1       -0.2026
      6 C          64.1091   91.1210   11.8172 C.ar    1  UNL1        0.1535
      7 C          63.2051   91.1294   10.6202 C.ar    1  UNL1        0.0369
      8 C          62.2736   89.9794   10.3758 C.ar    1  UNL1        0.0930
      9 CL         61.3696   89.9878    9.1789 Cl      1  UNL1       -0.0790
     10 S          65.0407   92.2710   12.0615 S.O2    1  UNL1        0.0772
     11 O          64.6220   92.3041   13.5015 O.2     1  UNL1       -0.1498
     12 O          65.4593   92.2379   10.6215 O.2     1  UNL1       -0.1498
     13 N          65.9723   93.4210   12.3060 N.pl3   1  UNL1       -0.1936
     14 H          66.2779   93.6212   13.2201 H       1  UNL1        0.1758
     15 C          66.4380   94.2661   11.1575 C.ar    1  UNL1        0.1786
     16 N          67.6158   93.9806   10.2735 N.ar    1  UNL1       -0.2214
     17 C          67.7135   95.0830    9.2611 C.ar    1  UNL1        0.1079
     18 C          66.5961   96.0499    9.5193 C.ar    1  UNL1        0.0588
     19 S          65.8078   95.5450   10.6913 S.2     1  UNL1       -0.0497
     20 C          61.4873   86.3908   11.8464 C.3     1  UNL1        0.2110
     21 N          61.6134   85.7037    8.9288 N.3     1  UNL1       -0.3218
     22 C          62.5197   85.0105    9.9025 C.3     1  UNL1        0.0588
     23 C          63.4891   83.9737    9.4174 C.3     1  UNL1        0.0206
     24 C          64.3955   83.2805   10.3910 C.3     1  UNL1        0.0271
     25 C          64.3324   83.6240   11.8497 C.2     1  UNL1       -0.0302
     26 C          63.3630   84.6608   12.3348 C.2     1  UNL1       -0.0218
     27 C          62.4567   85.3540   11.3612 C.3     1  UNL1        0.0798
     28 H          61.7901   85.3499    7.9886 H       1  UNL1        0.1188
     29 H          61.7920   86.7076    8.9535 H       1  UNL1        0.1188
     30 C          63.3000   85.0044   13.7937 C.ar    1  UNL1       -0.0040
     31 C          64.1714   86.0931   14.3461 C.ar    1  UNL1        0.0020
     32 C          64.1083   86.4367   15.8049 C.ar    1  UNL1        0.0296
     33 C          63.1738   85.6915   16.7112 C.ar    1  UNL1        0.1401
     34 F          63.1107   86.0350   18.1699 F       1  UNL1       -0.2042
     35 C          62.3024   84.6027   16.1587 C.ar    1  UNL1        0.0296
     36 C          62.3655   84.2592   14.6999 C.ar    1  UNL1        0.0020
@<TRIPOS>BOND
     1    22    21    1
     2    22    23    1
     3    23    24    1
     4    24    25    1
     5    25    26    2
     6    26    30    1
     7    30    31   ar
     8    31    32   ar
     9    32    33   ar
    10    33    34    1
    11    33    35   ar
    12    35    36   ar
    13    26    27    1
    14    27    20    1
    15    20     1    1
    16     1     2    1
    17     2     3   ar
    18     3     4   ar
    19     4     5    1
    20     4     6   ar
    21     6    10    1
    22    10    11    2
    23    10    12    2
    24    10    13    1
    25    13    15    1
    26    15    16   ar
    27    16    17   ar
    28    17    18   ar
    29    18    19   ar
    30     6     7   ar
    31     7     8   ar
    32     8     9    1
    33    27    22    1
    34     8     2   ar
    35    36    30   ar
    36    19    15   ar
    37    21    28    1
    38    21    29    1
    39    13    14    1
@<TRIPOS>MOLECULE
*****
 36 39 0 0 0
SMALL
GASTEIGER

@<TRIPOS>ATOM
      1 O          64.2750   89.8819   15.0553 O.3     1  UNL1       -0.4741
      2 C          63.9679   88.4154   15.1260 C.ar    1  UNL1        0.1513
      3 C          64.2260   87.5370   13.9378 C.ar    1  UNL1        0.0688
      4 C          63.9189   86.0704   14.0085 C.ar    1  UNL1        0.1620
      5 F          64.1770   85.1919   12.8204 F       1  UNL1       -0.2026
      6 C          63.3538   85.4823   15.2674 C.ar    1  UNL1        0.1535
      7 C          63.0957   86.3608   16.4555 C.ar    1  UNL1        0.0369
      8 C          63.4027   87.8273   16.3849 C.ar    1  UNL1        0.0930
      9 CL         63.1446   88.7057   17.5730 Cl      1  UNL1       -0.0790
     10 S          63.0467   84.0158   15.3381 S.O2    1  UNL1        0.0772
     11 O          64.5149   83.7090   15.3496 O.2     1  UNL1       -0.1498
     12 O          61.5785   84.3227   15.3266 O.2     1  UNL1       -0.1498
     13 N          62.7397   82.5492   15.4088 N.pl3   1  UNL1       -0.1936
     14 H          62.5563   82.1261   16.2785 H       1  UNL1        0.1758
     15 C          62.7121   81.7275   14.1542 C.ar    1  UNL1        0.1786
     16 N          62.6771   80.2296   14.0819 N.ar    1  UNL1       -0.2214
     17 C          62.6581   79.8356   12.6347 C.ar    1  UNL1        0.1079
     18 C          62.6813   81.0900   11.8125 C.ar    1  UNL1        0.0588
     19 S          62.7147   82.2593   12.7516 S.2     1  UNL1       -0.0497
     20 C          63.5251   90.7599   14.0978 C.3     1  UNL1        0.2110
     21 N          65.8039   92.5912   14.7712 N.3     1  UNL1       -0.3218
     22 C          65.3996   92.3918   13.3405 C.3     1  UNL1        0.0588
     23 C          66.1346   93.1079   12.2466 C.3     1  UNL1        0.0206
     24 C          65.7303   92.9085   10.8160 C.3     1  UNL1        0.0271
     25 C          64.5909   91.9928   10.4793 C.2     1  UNL1       -0.0302
     26 C          63.8559   91.2767   11.5732 C.2     1  UNL1       -0.0218
     27 C          64.2602   91.4761   13.0039 C.3     1  UNL1        0.0798
     28 H          66.5894   93.2404   14.8152 H       1  UNL1        0.1188
     29 H          66.0798   91.6959   15.1745 H       1  UNL1        0.1188
     30 C          62.7164   90.3610   11.2366 C.ar    1  UNL1       -0.0040
     31 C          61.3445   90.9231   11.0092 C.ar    1  UNL1        0.0020
     32 C          60.2050   90.0075   10.6725 C.ar    1  UNL1        0.0296
     33 C          60.4376   88.5296   10.5633 C.ar    1  UNL1        0.1401
     34 F          59.2982   87.6140   10.2266 F       1  UNL1       -0.2042
     35 C          61.8096   87.9675   10.7907 C.ar    1  UNL1        0.0296
     36 C          62.9490   88.8832   11.1273 C.ar    1  UNL1        0.0020
@<TRIPOS>BOND
     1    22    21    1
     2    22    23    1
     3    23    24    1
     4    24    25    1
     5    25    26    2
     6    26    30    1
     7    30    31   ar
     8    31    32   ar
     9    32    33   ar
    10    33    34    1
    11    33    35   ar
    12    35    36   ar
    13    26    27    1
    14    27    20    1
    15    20     1    1
    16     1     2    1
    17     2     3   ar
    18     3     4   ar
    19     4     5    1
    20     4     6   ar
    21     6    10    1
    22    10    11    2
    23    10    12    2
    24    10    13    1
    25    13    15    1
    26    15    16   ar
    27    16    17   ar
    28    17    18   ar
    29    18    19   ar
    30     6     7   ar
    31     7     8   ar
    32     8     9    1
    33    27    22    1
    34     8     2   ar
    35    36    30   ar
    36    19    15   ar
    37    21    28    1
    38    21    29    1
    39    13    14    1
@<TRIPOS>MOLECULE
*****
 36 39 0 0 0
SMALL
GASTEIGER

@<TRIPOS>ATOM
      1 O          63.4783   87.7719   14.0577 O.3     1  UNL1       -0.4741
      2 C          64.0453   89.1201   13.7248 C.ar    1  UNL1        0.1513
      3 C          65.1547   89.6932   14.5560 C.ar    1  UNL1        0.0688
      4 C          65.7217   91.0414   14.2231 C.ar    1  UNL1        0.1620
      5 F          66.8311   91.6145   15.0543 F       1  UNL1       -0.2026
      6 C          65.1794   91.8165   13.0591 C.ar    1  UNL1        0.1535
      7 C          64.0700   91.2435   12.2279 C.ar    1  UNL1        0.0369
      8 C          63.5030   89.8953   12.5607 C.ar    1  UNL1        0.0930
      9 CL         62.3936   89.3222   11.7295 Cl      1  UNL1       -0.0790
     10 S          65.7464   93.1647   12.7262 S.O2    1  UNL1        0.0772
     11 O          65.7344   93.5290   14.1812 O.2     1  UNL1       -0.1498
     12 O          65.7584   92.8004   11.2712 O.2     1  UNL1       -0.1498
     13 N          66.3135   94.5130   12.3934 N.pl3   1  UNL1       -0.1936
     14 H          66.4865   95.1649   13.1105 H       1  UNL1        0.1758
     15 C          66.6169   94.8679   10.9679 C.ar    1  UNL1        0.1786
     16 N          67.6985   94.2662   10.1205 N.ar    1  UNL1       -0.2214
     17 C          67.6420   94.9133    8.7684 C.ar    1  UNL1        0.1079
     18 C          66.5255   95.9149    8.7802 C.ar    1  UNL1        0.0588
     19 S          65.8919   95.8869   10.1395 S.2     1  UNL1       -0.0497
     20 C          63.8741   86.5716   13.2499 C.3     1  UNL1        0.2110
     21 N          64.3349   85.6999   16.0832 N.3     1  UNL1       -0.3218
     22 C          63.6859   84.7642   15.1068 C.3     1  UNL1        0.0588
     23 C          63.2674   83.3927   15.5471 C.3     1  UNL1        0.0206
     24 C          62.6184   82.4571   14.5707 C.3     1  UNL1        0.0271
     25 C          62.3879   82.8929   13.1540 C.2     1  UNL1       -0.0302
     26 C          62.8065   84.2644   12.7138 C.2     1  UNL1       -0.0218
     27 C          63.4555   85.2000   13.6902 C.3     1  UNL1        0.0798
     28 H          64.4124   85.2430   16.9919 H       1  UNL1        0.1188
     29 H          63.7684   86.5432   16.1739 H       1  UNL1        0.1188
     30 C          62.5761   84.7003   11.2971 C.ar    1  UNL1       -0.0040
     31 C          63.4137   84.1298   10.1912 C.ar    1  UNL1        0.0020
     32 C          63.1833   84.5657    8.7745 C.ar    1  UNL1        0.0296
     33 C          62.1152   85.5720    8.4637 C.ar    1  UNL1        0.1401
     34 F          61.8848   86.0079    7.0471 F       1  UNL1       -0.2042
     35 C          61.2776   86.1425    9.5697 C.ar    1  UNL1        0.0296
     36 C          61.5081   85.7066   10.9863 C.ar    1  UNL1        0.0020
@<TRIPOS>BOND
     1    22    21    1
     2    22    23    1
     3    23    24    1
     4    24    25    1
     5    25    26    2
     6    26    30    1
     7    30    31   ar
     8    31    32   ar
     9    32    33   ar
    10    33    34    1
    11    33    35   ar
    12    35    36   ar
    13    26    27    1
    14    27    20    1
    15    20     1    1
    16     1     2    1
    17     2     3   ar
    18     3     4   ar
    19     4     5    1
    20     4     6   ar
    21     6    10    1
    22    10    11    2
    23    10    12    2
    24    10    13    1
    25    13    15    1
    26    15    16   ar
    27    16    17   ar
    28    17    18   ar
    29    18    19   ar
    30     6     7   ar
    31     7     8   ar
    32     8     9    1
    33    27    22    1
    34     8     2   ar
    35    36    30   ar
    36    19    15   ar
    37    21    28    1
    38    21    29    1
    39    13    14    1
@<TRIPOS>MOLECULE
*****
 36 39 0 0 0
SMALL
GASTEIGER

@<TRIPOS>ATOM
      1 O          60.7095   88.1007   11.4940 O.3     1  UNL1       -0.4741
      2 C          61.8024   89.1176   11.6401 C.ar    1  UNL1        0.1513
      3 C          62.8233   88.9702   12.7291 C.ar    1  UNL1        0.0688
      4 C          63.9163   89.9872   12.8751 C.ar    1  UNL1        0.1620
      5 F          64.9373   89.8397   13.9641 F       1  UNL1       -0.2026
      6 C          63.9883   91.1515   11.9323 C.ar    1  UNL1        0.1535
      7 C          62.9673   91.2990   10.8433 C.ar    1  UNL1        0.0369
      8 C          61.8744   90.2821   10.6972 C.ar    1  UNL1        0.0930
      9 CL         60.8534   90.4295    9.6082 Cl      1  UNL1       -0.0790
     10 S          65.0812   92.1684   12.0784 S.O2    1  UNL1        0.0772
     11 O          65.4409   91.9895   10.6332 O.2     1  UNL1       -0.1498
     12 O          64.7215   92.3473   13.5235 O.2     1  UNL1       -0.1498
     13 N          66.1742   93.1854   12.2244 N.pl3   1  UNL1       -0.1936
     14 H          66.6709   93.2559   13.0715 H       1  UNL1        0.1758
     15 C          66.5102   94.0948   11.0799 C.ar    1  UNL1        0.1786
     16 N          67.6938   93.9638   10.1678 N.ar    1  UNL1       -0.2214
     17 C          67.6368   95.0830    9.1707 C.ar    1  UNL1        0.1079
     18 C          66.4180   95.9057    9.4665 C.ar    1  UNL1        0.0588
     19 S          65.7216   95.2950   10.6465 S.2     1  UNL1       -0.0497
     20 C          61.0435   86.6386   11.4716 C.3     1  UNL1        0.2110
     21 N          60.1224   87.5405    8.7627 N.3     1  UNL1       -0.3218
     22 C          61.1694   86.4731    8.8818 C.3     1  UNL1        0.0588
     23 C          61.7559   85.8566    7.6465 C.3     1  UNL1        0.0206
     24 C          62.8030   84.7891    7.7656 C.3     1  UNL1        0.0271
     25 C          63.2636   84.3382    9.1200 C.2     1  UNL1       -0.0302
     26 C          62.6771   84.9546   10.3553 C.2     1  UNL1       -0.0218
     27 C          61.6300   86.0221   10.2362 C.3     1  UNL1        0.0798
     28 H          59.9316   87.7212    7.7771 H       1  UNL1        0.1188
     29 H          60.4567   88.3958    9.2067 H       1  UNL1        0.1188
     30 C          63.1377   84.5037   11.7098 C.ar    1  UNL1       -0.0040
     31 C          63.5281   85.5166   12.7449 C.ar    1  UNL1        0.0020
     32 C          63.9887   85.0656   14.0994 C.ar    1  UNL1        0.0296
     33 C          64.0588   83.6017   14.4187 C.ar    1  UNL1        0.1401
     34 F          64.5193   83.1507   15.7731 F       1  UNL1       -0.2042
     35 C          63.6683   82.5887   13.3835 C.ar    1  UNL1        0.0296
     36 C          63.2078   83.0397   12.0291 C.ar    1  UNL1        0.0020
@<TRIPOS>BOND
     1    22    21    1
     2    22    23    1
     3    23    24    1
     4    24    25    1
     5    25    26    2
     6    26    30    1
     7    30    31   ar
     8    31    32   ar
     9    32    33   ar
    10    33    34    1
    11    33    35   ar
    12    35    36   ar
    13    26    27    1
    14    27    20    1
    15    20     1    1
    16     1     2    1
    17     2     3   ar
    18     3     4   ar
    19     4     5    1
    20     4     6   ar
    21     6    10    1
    22    10    11    2
    23    10    12    2
    24    10    13    1
    25    13    15    1
    26    15    16   ar
    27    16    17   ar
    28    17    18   ar
    29    18    19   ar
    30     6     7   ar
    31     7     8   ar
    32     8     9    1
    33    27    22    1
    34     8     2   ar
    35    36    30   ar
    36    19    15   ar
    37    21    28    1
    38    21    29    1
    39    13    14    1
@<TRIPOS>MOLECULE
*****
 36 39 0 0 0
SMALL
GASTEIGER

@<TRIPOS>ATOM
      1 O          60.4983   87.9712   11.4379 O.3     1  UNL1       -0.4741
      2 C          61.5867   88.9906   11.5996 C.ar    1  UNL1        0.1513
      3 C          62.6454   88.7979   12.6445 C.ar    1  UNL1        0.0688
      4 C          63.7339   89.8174   12.8062 C.ar    1  UNL1        0.1620
      5 F          64.7927   89.6248   13.8512 F       1  UNL1       -0.2026
      6 C          63.7634   91.0295   11.9231 C.ar    1  UNL1        0.1535
      7 C          62.7047   91.2221   10.8781 C.ar    1  UNL1        0.0369
      8 C          61.6163   90.2027   10.7164 C.ar    1  UNL1        0.0930
      9 CL         60.5575   90.3953    9.6715 Cl      1  UNL1       -0.0790
     10 S          64.8518   92.0489   12.0848 S.O2    1  UNL1        0.0772
     11 O          64.5903   92.0938   13.5611 O.2     1  UNL1       -0.1498
     12 O          65.1133   92.0039   10.6085 O.2     1  UNL1       -0.1498
     13 N          65.9402   93.0683   12.2466 N.pl3   1  UNL1       -0.1936
     14 H          66.0320   93.7985   11.5926 H       1  UNL1        0.1758
     15 C          66.8888   92.9753   13.4048 C.ar    1  UNL1        0.1786
     16 N          68.0282   92.0085   13.5359 N.ar    1  UNL1       -0.2214
     17 C          68.7082   92.2684   14.8474 C.ar    1  UNL1        0.1079
     18 C          67.9890   93.3957   15.5270 C.ar    1  UNL1        0.0588
     19 S          66.8646   93.8327   14.6355 S.2     1  UNL1       -0.0497
     20 C          60.8406   86.5121   11.3750 C.3     1  UNL1        0.2110
     21 N          59.9442   87.3863    8.6488 N.3     1  UNL1       -0.3218
     22 C          61.0530   86.3858    8.7887 C.3     1  UNL1        0.0588
     23 C          61.7136   85.8225    7.5656 C.3     1  UNL1        0.0206
     24 C          62.8224   84.8220    7.7055 C.3     1  UNL1        0.0271
     25 C          63.2706   84.3849    9.0685 C.2     1  UNL1       -0.0302
     26 C          62.6100   84.9483   10.2917 C.2     1  UNL1       -0.0218
     27 C          61.5012   85.9487   10.1518 C.3     1  UNL1        0.0798
     28 H          59.7715   87.5664    7.6598 H       1  UNL1        0.1188
     29 H          60.2103   88.2557    9.1112 H       1  UNL1        0.1188
     30 C          63.0582   84.5112   11.6549 C.ar    1  UNL1       -0.0040
     31 C          63.0309   83.0573   12.0230 C.ar    1  UNL1        0.0020
     32 C          63.4791   82.6202   13.3861 C.ar    1  UNL1        0.0296
     33 C          63.9546   83.6370   14.3811 C.ar    1  UNL1        0.1401
     34 F          64.4028   83.2000   15.7442 F       1  UNL1       -0.2042
     35 C          63.9819   85.0909   14.0129 C.ar    1  UNL1        0.0296
     36 C          63.5337   85.5280   12.6498 C.ar    1  UNL1        0.0020
@<TRIPOS>BOND
     1    22    21    1
     2    22    23    1
     3    23    24    1
     4    24    25    1
     5    25    26    2
     6    26    30    1
     7    30    31   ar
     8    31    32   ar
     9    32    33   ar
    10    33    34    1
    11    33    35   ar
    12    35    36   ar
    13    26    27    1
    14    27    20    1
    15    20     1    1
    16     1     2    1
    17     2     3   ar
    18     3     4   ar
    19     4     5    1
    20     4     6   ar
    21     6    10    1
    22    10    11    2
    23    10    12    2
    24    10    13    1
    25    13    15    1
    26    15    16   ar
    27    16    17   ar
    28    17    18   ar
    29    18    19   ar
    30     6     7   ar
    31     7     8   ar
    32     8     9    1
    33    27    22    1
    34     8     2   ar
    35    36    30   ar
    36    19    15   ar
    37    21    28    1
    38    21    29    1
    39    13    14    1
@<TRIPOS>MOLECULE
*****
 36 39 0 0 0
SMALL
GASTEIGER

@<TRIPOS>ATOM
      1 O          63.2002   90.9189   12.9001 O.3     1  UNL1       -0.4741
      2 C          63.0278   89.4670   12.5652 C.ar    1  UNL1        0.1513
      3 C          63.7257   88.4207   13.3827 C.ar    1  UNL1        0.0688
      4 C          63.5532   86.9687   13.0478 C.ar    1  UNL1        0.1620
      5 F          64.2511   85.9225   13.8653 F       1  UNL1       -0.2026
      6 C          62.6830   86.5631   11.8954 C.ar    1  UNL1        0.1535
      7 C          61.9851   87.6093   11.0779 C.ar    1  UNL1        0.0369
      8 C          62.1575   89.0613   11.4128 C.ar    1  UNL1        0.0930
      9 CL         61.4597   90.1075   10.5952 Cl      1  UNL1       -0.0790
     10 S          62.5106   85.1112   11.5605 S.O2    1  UNL1        0.0772
     11 O          61.9842   84.8551   12.9415 O.2     1  UNL1       -0.1498
     12 O          63.0370   85.3672   10.1795 O.2     1  UNL1       -0.1498
     13 N          62.3382   83.6592   11.2256 N.pl3   1  UNL1       -0.1936
     14 H          61.9358   83.3966   10.3664 H       1  UNL1        0.1758
     15 C          62.7789   82.6073   12.2000 C.ar    1  UNL1        0.1786
     16 N          61.8908   81.6088   12.8811 N.ar    1  UNL1       -0.2214
     17 C          62.7481   80.7537   13.7664 C.ar    1  UNL1        0.1079
     18 C          64.1662   81.2238   13.6324 C.ar    1  UNL1        0.0588
     19 S          64.1854   82.3694   12.6643 S.2     1  UNL1       -0.0497
     20 C          64.4869   91.6166   12.5722 C.3     1  UNL1        0.2110
     21 N          63.7108   91.1698   15.4354 N.3     1  UNL1       -0.3218
     22 C          65.0100   91.8436   15.1069 C.3     1  UNL1        0.0588
     23 C          65.9212   92.2941   16.2100 C.3     1  UNL1        0.0206
     24 C          67.2205   92.9679   15.8815 C.3     1  UNL1        0.0271
     25 C          67.6085   93.1913   14.4500 C.2     1  UNL1       -0.0302
     26 C          66.6974   92.7409   13.3469 C.2     1  UNL1       -0.0218
     27 C          65.3981   92.0670   13.6754 C.3     1  UNL1        0.0798
     28 H          63.6099   91.1011   16.4481 H       1  UNL1        0.1188
     29 H          63.7004   90.2345   15.0285 H       1  UNL1        0.1188
     30 C          67.0854   92.9642   11.9152 C.ar    1  UNL1       -0.0040
     31 C          66.5660   94.1612   11.1754 C.ar    1  UNL1        0.0020
     32 C          66.9541   94.3846    9.7437 C.ar    1  UNL1        0.0296
     33 C          67.8615   93.4110    9.0520 C.ar    1  UNL1        0.1401
     34 F          68.2496   93.6343    7.6204 F       1  UNL1       -0.2042
     35 C          68.3809   92.2139    9.7919 C.ar    1  UNL1        0.0296
     36 C          67.9929   91.9906   11.2235 C.ar    1  UNL1        0.0020
@<TRIPOS>BOND
     1    22    21    1
     2    22    23    1
     3    23    24    1
     4    24    25    1
     5    25    26    2
     6    26    30    1
     7    30    31   ar
     8    31    32   ar
     9    32    33   ar
    10    33    34    1
    11    33    35   ar
    12    35    36   ar
    13    26    27    1
    14    27    20    1
    15    20     1    1
    16     1     2    1
    17     2     3   ar
    18     3     4   ar
    19     4     5    1
    20     4     6   ar
    21     6    10    1
    22    10    11    2
    23    10    12    2
    24    10    13    1
    25    13    15    1
    26    15    16   ar
    27    16    17   ar
    28    17    18   ar
    29    18    19   ar
    30     6     7   ar
    31     7     8   ar
    32     8     9    1
    33    27    22    1
    34     8     2   ar
    35    36    30   ar
    36    19    15   ar
    37    21    28    1
    38    21    29    1
    39    13    14    1
@<TRIPOS>MOLECULE
*****
 36 39 0 0 0
SMALL
GASTEIGER

@<TRIPOS>ATOM
      1 O          62.4522   88.4987   13.0566 O.3     1  UNL1       -0.4741
      2 C          63.3558   89.6625   12.7759 C.ar    1  UNL1        0.1513
      3 C          63.1832   90.4594   11.5168 C.ar    1  UNL1        0.0688
      4 C          64.0869   91.6233   11.2361 C.ar    1  UNL1        0.1620
      5 F          63.9143   92.4203    9.9771 F       1  UNL1       -0.2026
      6 C          65.1631   91.9903   12.2144 C.ar    1  UNL1        0.1535
      7 C          65.3357   91.1934   13.4734 C.ar    1  UNL1        0.0369
      8 C          64.4320   90.0295   13.7542 C.ar    1  UNL1        0.0930
      9 CL         64.6046   89.2326   15.0132 Cl      1  UNL1       -0.0790
     10 S          66.0667   93.1542   11.9337 S.O2    1  UNL1        0.0772
     11 O          65.6910   93.7638   13.2517 O.2     1  UNL1       -0.1498
     12 O          66.4424   92.5446   10.6157 O.2     1  UNL1       -0.1498
     13 N          66.9704   94.3181   11.6530 N.pl3   1  UNL1       -0.1936
     14 H          67.7069   94.5298   12.2710 H       1  UNL1        0.1758
     15 C          66.7518   95.1595   10.4306 C.ar    1  UNL1        0.1786
     16 N          67.6475   95.2179    9.2287 N.ar    1  UNL1       -0.2214
     17 C          67.0485   96.1847    8.2507 C.ar    1  UNL1        0.1079
     18 C          65.7826   96.7239    8.8481 C.ar    1  UNL1        0.0588
     19 S          65.5992   96.0903   10.1954 S.2     1  UNL1       -0.0497
     20 C          61.7690   87.7895   11.9250 C.3     1  UNL1        0.2110
     21 N          63.5183   86.1173   13.6981 N.3     1  UNL1       -0.3218
     22 C          63.1777   85.6420   12.3168 C.3     1  UNL1        0.0588
     23 C          63.7118   84.3305   11.8220 C.3     1  UNL1        0.0206
     24 C          63.3713   83.8552   10.4406 C.3     1  UNL1        0.0271
     25 C          62.4967   84.6913    9.5541 C.2     1  UNL1       -0.0302
     26 C          61.9626   86.0027   10.0489 C.2     1  UNL1       -0.0218
     27 C          62.3031   86.4780   11.4302 C.3     1  UNL1        0.0798
     28 H          64.1169   85.4302   14.1562 H       1  UNL1        0.1188
     29 H          62.6610   86.2352   14.2381 H       1  UNL1        0.1188
     30 C          61.0879   86.8388    9.1624 C.ar    1  UNL1       -0.0040
     31 C          61.1198   88.3344    9.2725 C.ar    1  UNL1        0.0020
     32 C          60.2451   89.1706    8.3860 C.ar    1  UNL1        0.0296
     33 C          59.3386   88.5110    7.3893 C.ar    1  UNL1        0.1401
     34 F          58.4639   89.3471    6.5028 F       1  UNL1       -0.2042
     35 C          59.3067   87.0154    7.2793 C.ar    1  UNL1        0.0296
     36 C          60.1814   86.1793    8.1658 C.ar    1  UNL1        0.0020
@<TRIPOS>BOND
     1    22    21    1
     2    22    23    1
     3    23    24    1
     4    24    25    1
     5    25    26    2
     6    26    30    1
     7    30    31   ar
     8    31    32   ar
     9    32    33   ar
    10    33    34    1
    11    33    35   ar
    12    35    36   ar
    13    26    27    1
    14    27    20    1
    15    20     1    1
    16     1     2    1
    17     2     3   ar
    18     3     4   ar
    19     4     5    1
    20     4     6   ar
    21     6    10    1
    22    10    11    2
    23    10    12    2
    24    10    13    1
    25    13    15    1
    26    15    16   ar
    27    16    17   ar
    28    17    18   ar
    29    18    19   ar
    30     6     7   ar
    31     7     8   ar
    32     8     9    1
    33    27    22    1
    34     8     2   ar
    35    36    30   ar
    36    19    15   ar
    37    21    28    1
    38    21    29    1
    39    13    14    1
@<TRIPOS>MOLECULE
*****
 36 39 0 0 0
SMALL
GASTEIGER

@<TRIPOS>ATOM
      1 O          63.4815   84.4840   10.3672 O.3     1  UNL1       -0.4741
      2 C          62.4576   85.3685    9.7197 C.ar    1  UNL1        0.1513
      3 C          61.5685   86.2307   10.5659 C.ar    1  UNL1        0.0688
      4 C          60.5447   87.1153    9.9182 C.ar    1  UNL1        0.1620
      5 F          59.6556   87.9775   10.7644 F       1  UNL1       -0.2026
      6 C          60.4100   87.1376    8.4245 C.ar    1  UNL1        0.1535
      7 C          61.2991   86.2754    7.5783 C.ar    1  UNL1        0.0369
      8 C          62.3229   85.3908    8.2258 C.ar    1  UNL1        0.0930
      9 CL         63.2120   84.5286    7.3797 Cl      1  UNL1       -0.0790
     10 S          59.3862   88.0221    7.7769 S.O2    1  UNL1        0.0772
     11 O          60.0908   89.2319    8.3153 O.2     1  UNL1       -0.1498
     12 O          58.6815   86.8124    7.2386 O.2     1  UNL1       -0.1498
     13 N          58.3623   88.9068    7.1294 N.pl3   1  UNL1       -0.1936
     14 H          57.4089   88.7996    7.3502 H       1  UNL1        0.1758
     15 C          58.7912   89.9546    6.1455 C.ar    1  UNL1        0.1786
     16 N          60.1948   90.2042    5.6789 N.ar    1  UNL1       -0.2214
     17 C          60.1628   91.3407    4.7004 C.ar    1  UNL1        0.1079
     18 C          58.7395   91.7935    4.5622 C.ar    1  UNL1        0.0588
     19 S          57.8917   90.9369    5.4553 S.2     1  UNL1       -0.0497
     20 C          63.5255   84.3567   11.8612 C.3     1  UNL1        0.2110
     21 N          63.2848   81.8673   10.2044 N.3     1  UNL1       -0.3218
     22 C          63.0525   81.8081   11.6852 C.3     1  UNL1        0.0588
     23 C          62.6999   80.5043   12.3375 C.3     1  UNL1        0.0206
     24 C          62.4677   80.4451   13.8182 C.3     1  UNL1        0.0271
     25 C          62.5880   81.6898   14.6466 C.2     1  UNL1       -0.0302
     26 C          62.9406   82.9936   13.9942 C.2     1  UNL1       -0.0218
     27 C          63.1728   83.0528   12.5135 C.3     1  UNL1        0.0798
     28 H          63.1623   80.9373    9.8036 H       1  UNL1        0.1188
     29 H          64.2336   82.1940   10.0219 H       1  UNL1        0.1188
     30 C          63.0609   84.2384   14.8226 C.ar    1  UNL1       -0.0040
     31 C          62.0861   84.4977   15.9327 C.ar    1  UNL1        0.0020
     32 C          62.2064   85.7425   16.7611 C.ar    1  UNL1        0.0296
     33 C          63.3017   86.7279   16.4793 C.ar    1  UNL1        0.1401
     34 F          63.4221   87.9726   17.3076 F       1  UNL1       -0.2042
     35 C          64.2766   86.4685   15.3691 C.ar    1  UNL1        0.0296
     36 C          64.1562   85.2238   14.5408 C.ar    1  UNL1        0.0020
@<TRIPOS>BOND
     1    22    21    1
     2    22    23    1
     3    23    24    1
     4    24    25    1
     5    25    26    2
     6    26    30    1
     7    30    31   ar
     8    31    32   ar
     9    32    33   ar
    10    33    34    1
    11    33    35   ar
    12    35    36   ar
    13    26    27    1
    14    27    20    1
    15    20     1    1
    16     1     2    1
    17     2     3   ar
    18     3     4   ar
    19     4     5    1
    20     4     6   ar
    21     6    10    1
    22    10    11    2
    23    10    12    2
    24    10    13    1
    25    13    15    1
    26    15    16   ar
    27    16    17   ar
    28    17    18   ar
    29    18    19   ar
    30     6     7   ar
    31     7     8   ar
    32     8     9    1
    33    27    22    1
    34     8     2   ar
    35    36    30   ar
    36    19    15   ar
    37    21    28    1
    38    21    29    1
    39    13    14    1
