@<TRIPOS>MOLECULE
*****
 35 38 0 0 0
SMALL
GASTEIGER

@<TRIPOS>ATOM
      1 C          61.5324   87.0830   10.2245 C.ar    1  UNL1        0.0006
      2 C          60.9563   85.9342    9.4510 C.ar    1  UNL1        0.0016
      3 C          60.1657   86.1920    8.2026 C.ar    1  UNL1        0.0196
      4 C          59.9513   87.5986    7.7277 C.ar    1  UNL1        0.0875
      5 N          59.2213   88.1575    6.5424 N.ar    1  UNL1       -0.2412
      6 C          59.3464   89.6517    6.5833 C.ar    1  UNL1        0.1110
      7 S          60.1535   90.0163    7.7939 S.2     1  UNL1       -0.0693
      8 C          60.5274   88.7474    8.5012 C.ar    1  UNL1        0.0482
      9 C          61.3179   88.4896    9.7496 C.ar    1  UNL1        0.0080
     10 C          63.2006   85.1783   13.2805 C.ar    1  UNL1        0.0536
     11 C          63.9041   86.3097   13.9698 C.ar    1  UNL1        0.0045
     12 C          63.8170   87.6989   13.4106 C.ar    1  UNL1        0.0001
     13 C          63.0264   87.9567   12.1622 C.ar    1  UNL1        0.0000
     14 C          62.3230   86.8253   11.4729 C.ar    1  UNL1        0.0002
     15 C          62.4101   85.4361   12.0321 C.ar    1  UNL1        0.0045
     16 C          63.9753   81.2974   13.5779 C.3     1  UNL1        0.1152
     17 N          63.8882   82.6866   13.0188 N.am    1  UNL1       -0.2726
     18 C          64.4016   82.9732   11.6388 C.3     1  UNL1        0.1152
     19 C          63.2877   83.7892   13.8396 C.2     1  UNL1        0.2491
     20 O          62.7743   83.5026   15.2196 O.2     1  UNL1       -0.2699
     21 C          58.7661   90.6127    5.5883 C.3     1  UNL1        0.2129
     22 C          59.6736   91.4224    4.7105 C.2     1  UNL1        0.2430
     23 O          61.1617   91.2922    4.8472 O.2     1  UNL1       -0.2735
     24 N          59.0930   92.3623    3.6959 N.am    1  UNL1       -0.2955
     25 H          58.1163   92.4478    3.6062 H       1  UNL1        0.1499
     26 C          60.0005   93.1722    2.8180 C.3     1  UNL1        0.1757
     27 C          59.6096   93.4611    1.3989 C.2     1  UNL1        0.2425
     28 O          59.4628   94.8801    0.9355 O.2     1  UNL1       -0.2733
     29 N          59.3655   92.3309    0.4434 N.am    1  UNL1       -0.3046
     30 H          59.4619   91.3996    0.7475 H       1  UNL1        0.1494
     31 C          58.9746   92.6198   -0.9758 C.3     1  UNL1        0.0717
     32 C          57.9355   92.6464   -2.0572 C.3     1  UNL1        0.0213
     33 C          59.3366   93.0935   -2.3522 C.3     1  UNL1        0.0213
     34 C          57.2783   90.7638    5.4713 C.1     1  UNL1        0.0881
     35 N          55.7906   90.9150    5.3543 N.1     1  UNL1       -0.1950
@<TRIPOS>BOND
     1    16    17    1
     2    17    18    1
     3    17    19   am
     4    19    20    2
     5    19    10    1
     6    10    11   ar
     7    11    12   ar
     8    12    13   ar
     9    13    14   ar
    10    14     1    1
    11     1     2   ar
    12     2     3   ar
    13     3     4   ar
    14     4     5   ar
    15     5     6   ar
    16     6    21    1
    17    21    34    1
    18    34    35    3
    19    21    22    1
    20    22    23    2
    21    22    24   am
    22    24    26    1
    23    26    27    1
    24    27    28    2
    25    27    29   am
    26    29    31    1
    27    31    32    1
    28    32    33    1
    29     6     7   ar
    30     7     8   ar
    31     8     9   ar
    32    14    15   ar
    33    15    10   ar
    34     9     1   ar
    35     8     4   ar
    36    33    31    1
    37    24    25    1
    38    29    30    1
@<TRIPOS>MOLECULE
*****
 35 38 0 0 0
SMALL
GASTEIGER

@<TRIPOS>ATOM
      1 C          59.4671   90.1094    6.1475 C.ar    1  UNL1        0.0006
      2 C          58.1257   90.6999    5.8283 C.ar    1  UNL1        0.0016
      3 C          57.9949   91.7150    4.7318 C.ar    1  UNL1        0.0196
      4 C          59.2055   92.1396    3.9545 C.ar    1  UNL1        0.0875
      5 N          59.3838   93.1127    2.8269 N.ar    1  UNL1       -0.2412
      6 C          60.8355   93.1236    2.4493 C.ar    1  UNL1        0.1110
      7 S          61.5543   92.1572    3.3434 S.2     1  UNL1       -0.0693
      8 C          60.5469   91.5491    4.2737 C.ar    1  UNL1        0.0482
      9 C          60.6777   90.5340    5.3702 C.ar    1  UNL1        0.0080
     10 C          60.1394   88.5108    9.7172 C.ar    1  UNL1        0.0536
     11 C          59.8597   87.0639    9.4371 C.ar    1  UNL1        0.0045
     12 C          59.4491   86.6322    8.0605 C.ar    1  UNL1        0.0001
     13 C          59.3183   87.6474    6.9640 C.ar    1  UNL1        0.0000
     14 C          59.5980   89.0942    7.2441 C.ar    1  UNL1        0.0002
     15 C          60.0085   89.5259    8.6207 C.ar    1  UNL1        0.0045
     16 C          62.3015   90.0100   12.6883 C.3     1  UNL1        0.1152
     17 N          61.8910   89.5783   11.3117 N.am    1  UNL1       -0.2726
     18 C          62.8214   89.7824   10.1530 C.3     1  UNL1        0.1152
     19 C          60.5499   88.9425   11.0938 C.2     1  UNL1        0.2491
     20 O          59.6195   88.7385   12.2525 O.2     1  UNL1       -0.2699
     21 C          61.4589   93.9548    1.3674 C.3     1  UNL1        0.2129
     22 C          60.6440   94.3739    0.1799 C.2     1  UNL1        0.2430
     23 O          61.1330   94.0789   -1.2072 O.2     1  UNL1       -0.2735
     24 N          59.3400   95.0878    0.3794 N.am    1  UNL1       -0.2955
     25 H          59.0190   95.2814    1.2897 H       1  UNL1        0.1499
     26 C          58.5250   95.5069   -0.8082 C.3     1  UNL1        0.1757
     27 C          57.6420   94.5116   -1.5008 C.2     1  UNL1        0.2425
     28 O          56.1507   94.6240   -1.3852 O.2     1  UNL1       -0.2733
     29 N          58.2504   93.4041   -2.3089 N.am    1  UNL1       -0.3046
     30 H          59.2292   93.3304   -2.3848 H       1  UNL1        0.1494
     31 C          57.3674   92.4087   -3.0016 C.3     1  UNL1        0.0717
     32 C          57.0450   91.5753   -4.2064 C.3     1  UNL1        0.0213
     33 C          56.1604   91.5182   -2.9964 C.3     1  UNL1        0.0213
     34 C          62.8973   94.3670    1.4731 C.1     1  UNL1        0.0881
     35 N          64.3357   94.7792    1.5788 N.1     1  UNL1       -0.1950
@<TRIPOS>BOND
     1    16    17    1
     2    17    18    1
     3    17    19   am
     4    19    20    2
     5    19    10    1
     6    10    11   ar
     7    11    12   ar
     8    12    13   ar
     9    13    14   ar
    10    14     1    1
    11     1     2   ar
    12     2     3   ar
    13     3     4   ar
    14     4     5   ar
    15     5     6   ar
    16     6    21    1
    17    21    34    1
    18    34    35    3
    19    21    22    1
    20    22    23    2
    21    22    24   am
    22    24    26    1
    23    26    27    1
    24    27    28    2
    25    27    29   am
    26    29    31    1
    27    31    32    1
    28    32    33    1
    29     6     7   ar
    30     7     8   ar
    31     8     9   ar
    32    14    15   ar
    33    15    10   ar
    34     9     1   ar
    35     8     4   ar
    36    33    31    1
    37    24    25    1
    38    29    30    1
@<TRIPOS>MOLECULE
*****
 35 38 0 0 0
SMALL
GASTEIGER

@<TRIPOS>ATOM
      1 C          64.1886   90.5900   12.5125 C.ar    1  UNL1        0.0006
      2 C          64.0029   89.3442   13.3270 C.ar    1  UNL1        0.0016
      3 C          63.1865   88.2086   12.7852 C.ar    1  UNL1        0.0196
      4 C          62.5557   88.3187   11.4287 C.ar    1  UNL1        0.0875
      5 N          61.7036   87.3706   10.6381 N.ar    1  UNL1       -0.2412
      6 C          61.3626   88.0304    9.3349 C.ar    1  UNL1        0.1110
      7 S          62.0039   89.3863    9.3201 S.2     1  UNL1       -0.0693
      8 C          62.7413   89.5645   10.6142 C.ar    1  UNL1        0.0482
      9 C          63.5577   90.7001   11.1560 C.ar    1  UNL1        0.0080
     10 C          66.1001   94.0605   12.7391 C.ar    1  UNL1        0.0536
     11 C          66.6380   93.9971   14.1380 C.ar    1  UNL1        0.0045
     12 C          66.3594   92.7980   14.9950 C.ar    1  UNL1        0.0001
     13 C          65.5429   91.6623   14.4531 C.ar    1  UNL1        0.0000
     14 C          65.0051   91.7257   13.0544 C.ar    1  UNL1        0.0002
     15 C          65.2837   92.9249   12.1973 C.ar    1  UNL1        0.0045
     16 C          67.2255   96.2809    9.6483 C.3     1  UNL1        0.1152
     17 N          66.9468   95.0818   10.5053 N.am    1  UNL1       -0.2726
     18 C          67.2363   93.7049    9.9854 C.3     1  UNL1        0.1152
     19 C          66.3788   95.2597   11.8821 C.2     1  UNL1        0.2491
     20 O          66.0893   96.6366   12.4020 O.2     1  UNL1       -0.2699
     21 C          60.5270   87.4383    8.2389 C.3     1  UNL1        0.2129
     22 C          59.4022   88.2309    7.6418 C.2     1  UNL1        0.2430
     23 O          57.9924   87.7297    7.7479 O.2     1  UNL1       -0.2735
     24 N          59.6872   89.5248    6.9385 N.am    1  UNL1       -0.2955
     25 H          60.6125   89.8538    6.8688 H       1  UNL1        0.1499
     26 C          58.5624   90.3175    6.3413 C.3     1  UNL1        0.1757
     27 C          58.8250   91.2415    5.1893 C.2     1  UNL1        0.2425
     28 O          57.6833   91.9430    4.5151 O.2     1  UNL1       -0.2733
     29 N          60.2293   91.4639    4.7113 N.am    1  UNL1       -0.3046
     30 H          60.9786   91.0035    5.1538 H       1  UNL1        0.1494
     31 C          60.4919   92.3879    3.5592 C.3     1  UNL1        0.0717
     32 C          61.3522   92.8162    2.4075 C.3     1  UNL1        0.0213
     33 C          60.0866   93.5600    2.7155 C.3     1  UNL1        0.0213
     34 C          60.8162   86.0536    7.7400 C.1     1  UNL1        0.0881
     35 N          61.1054   84.6689    7.2411 N.1     1  UNL1       -0.1950
@<TRIPOS>BOND
     1    16    17    1
     2    17    18    1
     3    17    19   am
     4    19    20    2
     5    19    10    1
     6    10    11   ar
     7    11    12   ar
     8    12    13   ar
     9    13    14   ar
    10    14     1    1
    11     1     2   ar
    12     2     3   ar
    13     3     4   ar
    14     4     5   ar
    15     5     6   ar
    16     6    21    1
    17    21    34    1
    18    34    35    3
    19    21    22    1
    20    22    23    2
    21    22    24   am
    22    24    26    1
    23    26    27    1
    24    27    28    2
    25    27    29   am
    26    29    31    1
    27    31    32    1
    28    32    33    1
    29     6     7   ar
    30     7     8   ar
    31     8     9   ar
    32    14    15   ar
    33    15    10   ar
    34     9     1   ar
    35     8     4   ar
    36    33    31    1
    37    24    25    1
    38    29    30    1
@<TRIPOS>MOLECULE
*****
 35 38 0 0 0
SMALL
GASTEIGER

@<TRIPOS>ATOM
      1 C          63.7079   89.1096   13.5331 C.ar    1  UNL1        0.0006
      2 C          63.9346   87.6583   13.8367 C.ar    1  UNL1        0.0016
      3 C          63.4462   86.6076   12.8841 C.ar    1  UNL1        0.0196
      4 C          62.7311   87.0082   11.6279 C.ar    1  UNL1        0.0875
      5 N          62.1403   86.2027   10.5088 N.ar    1  UNL1       -0.2412
      6 C          61.5485   87.1563    9.5136 C.ar    1  UNL1        0.1110
      7 S          61.7735   88.5510   10.0176 S.2     1  UNL1       -0.0693
      8 C          62.5044   88.4595   11.3242 C.ar    1  UNL1        0.0482
      9 C          62.9928   89.5102   12.2768 C.ar    1  UNL1        0.0080
     10 C          65.8714   92.0554   15.0794 C.ar    1  UNL1        0.0536
     11 C          65.1731   92.2619   16.3909 C.ar    1  UNL1        0.0045
     12 C          63.9864   91.4175   16.7497 C.ar    1  UNL1        0.0001
     13 C          63.4980   90.3667   15.7971 C.ar    1  UNL1        0.0000
     14 C          64.1963   90.1604   14.4857 C.ar    1  UNL1        0.0002
     15 C          65.3830   91.0047   14.1269 C.ar    1  UNL1        0.0045
     16 C          69.5119   93.6338   15.1572 C.3     1  UNL1        0.1152
     17 N          68.3252   92.7895   15.5160 N.am    1  UNL1       -0.2726
     18 C          68.4054   91.8348   16.6701 C.3     1  UNL1        0.1152
     19 C          67.0581   92.8998   14.7206 C.2     1  UNL1        0.2491
     20 O          66.9779   93.8545   13.5664 O.2     1  UNL1       -0.2699
     21 C          60.8536   86.7810    8.2383 C.3     1  UNL1        0.2129
     22 C          59.6689   87.5721    7.7688 C.2     1  UNL1        0.2430
     23 O          58.2858   87.0109    7.9171 O.2     1  UNL1       -0.2735
     24 N          59.8673   88.9245    7.1510 N.am    1  UNL1       -0.2955
     25 H          60.7752   89.2928    7.0537 H       1  UNL1        0.1499
     26 C          58.6826   89.7157    6.6815 C.3     1  UNL1        0.1757
     27 C          58.8348   90.6998    5.5598 C.2     1  UNL1        0.2425
     28 O          57.6201   91.3262    4.9416 O.2     1  UNL1       -0.2733
     29 N          60.2017   91.0576    5.0563 N.am    1  UNL1       -0.3046
     30 H          60.9989   90.6464    5.4620 H       1  UNL1        0.1494
     31 C          60.3539   92.0417    3.9345 C.3     1  UNL1        0.0717
     32 C          61.1894   92.6592    2.8525 C.3     1  UNL1        0.0213
     33 C          59.7821   93.1288    3.0735 C.3     1  UNL1        0.0213
     34 C          61.3436   85.6145    7.4325 C.1     1  UNL1        0.0881
     35 N          61.8335   84.4480    6.6267 N.1     1  UNL1       -0.1950
@<TRIPOS>BOND
     1    16    17    1
     2    17    18    1
     3    17    19   am
     4    19    20    2
     5    19    10    1
     6    10    11   ar
     7    11    12   ar
     8    12    13   ar
     9    13    14   ar
    10    14     1    1
    11     1     2   ar
    12     2     3   ar
    13     3     4   ar
    14     4     5   ar
    15     5     6   ar
    16     6    21    1
    17    21    34    1
    18    34    35    3
    19    21    22    1
    20    22    23    2
    21    22    24   am
    22    24    26    1
    23    26    27    1
    24    27    28    2
    25    27    29   am
    26    29    31    1
    27    31    32    1
    28    32    33    1
    29     6     7   ar
    30     7     8   ar
    31     8     9   ar
    32    14    15   ar
    33    15    10   ar
    34     9     1   ar
    35     8     4   ar
    36    33    31    1
    37    24    25    1
    38    29    30    1
@<TRIPOS>MOLECULE
*****
 35 38 0 0 0
SMALL
GASTEIGER

@<TRIPOS>ATOM
      1 C          61.5002   86.7439    9.7919 C.ar    1  UNL1        0.0006
      2 C          61.1357   87.8164   10.7751 C.ar    1  UNL1        0.0016
      3 C          60.4257   89.0523   10.3079 C.ar    1  UNL1        0.0196
      4 C          60.0800   89.2157    8.8574 C.ar    1  UNL1        0.0875
      5 N          59.3877   90.3155    8.1083 N.ar    1  UNL1       -0.2412
      6 C          59.3243   89.9226    6.6621 C.ar    1  UNL1        0.1110
      7 S          59.9774   88.5801    6.5174 S.2     1  UNL1       -0.0693
      8 C          60.4445   88.1431    7.8742 C.ar    1  UNL1        0.0482
      9 C          61.1545   86.9073    8.3414 C.ar    1  UNL1        0.0080
     10 C          62.7970   83.8309   12.1547 C.ar    1  UNL1        0.0536
     11 C          63.6305   83.0361   11.1935 C.ar    1  UNL1        0.0045
     12 C          63.7538   83.4772    9.7652 C.ar    1  UNL1        0.0001
     13 C          63.0436   84.7132    9.2980 C.ar    1  UNL1        0.0000
     14 C          62.2103   85.5079   10.2591 C.ar    1  UNL1        0.0002
     15 C          62.0870   85.0668   11.6875 C.ar    1  UNL1        0.0045
     16 C          63.1695   83.7674   16.1053 C.3     1  UNL1        0.1152
     17 N          63.2928   84.2085   14.6769 N.am    1  UNL1       -0.2726
     18 C          64.0350   85.4683   14.3425 C.3     1  UNL1        0.1152
     19 C          62.6737   83.3898   13.5830 C.2     1  UNL1        0.2491
     20 O          61.9315   82.1300   13.9175 O.2     1  UNL1       -0.2699
     21 C          58.7147   90.7305    5.5548 C.3     1  UNL1        0.2129
     22 C          59.5966   91.4678    4.5912 C.2     1  UNL1        0.2430
     23 O          61.0876   91.3321    4.6845 O.2     1  UNL1       -0.2735
     24 N          58.9876   92.3407    3.5343 N.am    1  UNL1       -0.2955
     25 H          58.0091   92.4297    3.4731 H       1  UNL1        0.1499
     26 C          59.8695   93.0780    2.5706 C.3     1  UNL1        0.1757
     27 C          59.3607   93.4247    1.2028 C.2     1  UNL1        0.2425
     28 O          59.3450   94.8541    0.7484 O.2     1  UNL1       -0.2733
     29 N          58.8677   92.3419    0.2894 N.am    1  UNL1       -0.3046
     30 H          58.8780   91.4037    0.5877 H       1  UNL1        0.1494
     31 C          58.3588   92.6885   -1.0785 C.3     1  UNL1        0.0717
     32 C          58.5609   92.7458   -2.5637 C.3     1  UNL1        0.0213
     33 C          57.2754   93.2315   -1.9624 C.3     1  UNL1        0.0213
     34 C          57.2233   90.8010    5.4113 C.1     1  UNL1        0.0881
     35 N          55.7318   90.8716    5.2678 N.1     1  UNL1       -0.1950
@<TRIPOS>BOND
     1    16    17    1
     2    17    18    1
     3    17    19   am
     4    19    20    2
     5    19    10    1
     6    10    11   ar
     7    11    12   ar
     8    12    13   ar
     9    13    14   ar
    10    14     1    1
    11     1     2   ar
    12     2     3   ar
    13     3     4   ar
    14     4     5   ar
    15     5     6   ar
    16     6    21    1
    17    21    34    1
    18    34    35    3
    19    21    22    1
    20    22    23    2
    21    22    24   am
    22    24    26    1
    23    26    27    1
    24    27    28    2
    25    27    29   am
    26    29    31    1
    27    31    32    1
    28    32    33    1
    29     6     7   ar
    30     7     8   ar
    31     8     9   ar
    32    14    15   ar
    33    15    10   ar
    34     9     1   ar
    35     8     4   ar
    36    33    31    1
    37    24    25    1
    38    29    30    1
@<TRIPOS>MOLECULE
*****
 35 38 0 0 0
SMALL
GASTEIGER

@<TRIPOS>ATOM
      1 C          59.6798   89.2398    7.3339 C.ar    1  UNL1        0.0006
      2 C          59.3143   87.7853    7.3653 C.ar    1  UNL1        0.0016
      3 C          59.8754   86.8940    8.4333 C.ar    1  UNL1        0.0196
      4 C          60.8019   87.4570    9.4699 C.ar    1  UNL1        0.0875
      5 N          61.5058   86.8272   10.6352 N.ar    1  UNL1       -0.2412
      6 C          62.3063   87.8925   11.3240 C.ar    1  UNL1        0.1110
      7 S          62.0971   89.1806   10.5844 S.2     1  UNL1       -0.0693
      8 C          61.1673   88.9115    9.4385 C.ar    1  UNL1        0.0482
      9 C          60.6063   89.8028    8.3705 C.ar    1  UNL1        0.0080
     10 C          59.4801   91.8334    4.3367 C.ar    1  UNL1        0.0536
     11 C          57.9966   91.9141    4.1300 C.ar    1  UNL1        0.0045
     12 C          57.0741   91.1034    4.9912 C.ar    1  UNL1        0.0001
     13 C          57.6352   90.2119    6.0593 C.ar    1  UNL1        0.0000
     14 C          59.1187   90.1312    6.2659 C.ar    1  UNL1        0.0002
     15 C          60.0411   90.9419    5.4046 C.ar    1  UNL1        0.0045
     16 C          62.7050   92.9505    2.3112 C.3     1  UNL1        0.1152
     17 N          61.7825   92.1398    3.1725 N.am    1  UNL1       -0.2726
     18 C          62.2399   90.8249    3.7308 C.3     1  UNL1        0.1152
     19 C          60.4026   92.6441    3.4754 C.2     1  UNL1        0.2491
     20 O          59.9452   93.9590    2.9170 O.2     1  UNL1       -0.2699
     21 C          63.1652   87.7029   12.5392 C.3     1  UNL1        0.2129
     22 C          63.4974   86.3196   13.0144 C.2     1  UNL1        0.2430
     23 O          63.1888   85.1346   12.1480 O.2     1  UNL1       -0.2735
     24 N          64.1383   86.1212   14.3559 N.am    1  UNL1       -0.2955
     25 H          64.3409   86.8989   14.9246 H       1  UNL1        0.1499
     26 C          64.4706   84.7378   14.8312 C.3     1  UNL1        0.1757
     27 C          63.4295   83.6589   14.7860 C.2     1  UNL1        0.2425
     28 O          62.2573   83.7081   15.7206 O.2     1  UNL1       -0.2733
     29 N          63.5606   82.5309   13.8060 N.am    1  UNL1       -0.3046
     30 H          64.3299   82.4986   13.1926 H       1  UNL1        0.1494
     31 C          62.5194   81.4519   13.7607 C.3     1  UNL1        0.0717
     32 C          62.1190   80.0464   13.4228 C.3     1  UNL1        0.0213
     33 C          61.1166   80.9887   14.0202 C.3     1  UNL1        0.0213
     34 C          63.6918   88.8968   13.2790 C.1     1  UNL1        0.0881
     35 N          64.2183   90.0907   14.0189 N.1     1  UNL1       -0.1950
@<TRIPOS>BOND
     1    16    17    1
     2    17    18    1
     3    17    19   am
     4    19    20    2
     5    19    10    1
     6    10    11   ar
     7    11    12   ar
     8    12    13   ar
     9    13    14   ar
    10    14     1    1
    11     1     2   ar
    12     2     3   ar
    13     3     4   ar
    14     4     5   ar
    15     5     6   ar
    16     6    21    1
    17    21    34    1
    18    34    35    3
    19    21    22    1
    20    22    23    2
    21    22    24   am
    22    24    26    1
    23    26    27    1
    24    27    28    2
    25    27    29   am
    26    29    31    1
    27    31    32    1
    28    32    33    1
    29     6     7   ar
    30     7     8   ar
    31     8     9   ar
    32    14    15   ar
    33    15    10   ar
    34     9     1   ar
    35     8     4   ar
    36    33    31    1
    37    24    25    1
    38    29    30    1
@<TRIPOS>MOLECULE
*****
 35 38 0 0 0
SMALL
GASTEIGER

@<TRIPOS>ATOM
      1 C          59.7041   89.1562    7.1519 C.ar    1  UNL1        0.0006
      2 C          58.9352   87.8707    7.2308 C.ar    1  UNL1        0.0016
      3 C          59.2567   86.8689    8.2998 C.ar    1  UNL1        0.0196
      4 C          60.3471   87.1526    9.2901 C.ar    1  UNL1        0.0875
      5 N          60.8847   86.3610   10.4452 N.ar    1  UNL1       -0.2412
      6 C          61.9859   87.1573   11.0803 C.ar    1  UNL1        0.1110
      7 S          62.1288   88.4410   10.3177 S.2     1  UNL1       -0.0693
      8 C          61.1160   88.4381    9.2112 C.ar    1  UNL1        0.0482
      9 C          60.7945   89.4399    8.1422 C.ar    1  UNL1        0.0080
     10 C          60.1490   91.6793    4.1210 C.ar    1  UNL1        0.0536
     11 C          58.7397   92.1619    3.9446 C.ar    1  UNL1        0.0045
     12 C          57.6519   91.6426    4.8374 C.ar    1  UNL1        0.0001
     13 C          57.9734   90.6407    5.9065 C.ar    1  UNL1        0.0000
     14 C          59.3826   90.1581    6.0828 C.ar    1  UNL1        0.0002
     15 C          60.4704   90.6774    5.1901 C.ar    1  UNL1        0.0045
     16 C          61.9742   93.4354    1.0657 C.3     1  UNL1        0.1152
     17 N          60.8864   92.9162    1.9585 N.am    1  UNL1       -0.2726
     18 C          59.4482   93.1145    1.5815 C.3     1  UNL1        0.1152
     19 C          61.2368   92.1985    3.2282 C.2     1  UNL1        0.2491
     20 O          62.6751   92.0002    3.6052 O.2     1  UNL1       -0.2699
     21 C          62.8011   86.7426   12.2693 C.3     1  UNL1        0.2129
     22 C          63.4045   87.7837   13.1648 C.2     1  UNL1        0.2430
     23 O          64.2644   87.3703   14.3222 O.2     1  UNL1       -0.2735
     24 N          63.1480   89.2382   12.9029 N.am    1  UNL1       -0.2955
     25 H          62.5836   89.5095   12.1432 H       1  UNL1        0.1499
     26 C          63.7515   90.2793   13.7984 C.3     1  UNL1        0.1757
     27 C          64.5762   91.3865   13.2118 C.2     1  UNL1        0.2425
     28 O          65.3731   92.2851   14.1104 O.2     1  UNL1       -0.2733
     29 N          64.6039   91.5950   11.7267 N.am    1  UNL1       -0.3046
     30 H          64.0808   91.0052   11.1370 H       1  UNL1        0.1494
     31 C          65.4286   92.7022   11.1400 C.3     1  UNL1        0.0717
     32 C          66.5680   93.1558   10.2763 C.3     1  UNL1        0.0213
     33 C          65.7176   94.1661   10.9877 C.3     1  UNL1        0.0213
     34 C          63.0128   85.2869   12.5627 C.1     1  UNL1        0.0881
     35 N          63.2245   83.8312   12.8561 N.1     1  UNL1       -0.1950
@<TRIPOS>BOND
     1    16    17    1
     2    17    18    1
     3    17    19   am
     4    19    20    2
     5    19    10    1
     6    10    11   ar
     7    11    12   ar
     8    12    13   ar
     9    13    14   ar
    10    14     1    1
    11     1     2   ar
    12     2     3   ar
    13     3     4   ar
    14     4     5   ar
    15     5     6   ar
    16     6    21    1
    17    21    34    1
    18    34    35    3
    19    21    22    1
    20    22    23    2
    21    22    24   am
    22    24    26    1
    23    26    27    1
    24    27    28    2
    25    27    29   am
    26    29    31    1
    27    31    32    1
    28    32    33    1
    29     6     7   ar
    30     7     8   ar
    31     8     9   ar
    32    14    15   ar
    33    15    10   ar
    34     9     1   ar
    35     8     4   ar
    36    33    31    1
    37    24    25    1
    38    29    30    1
@<TRIPOS>MOLECULE
*****
 35 38 0 0 0
SMALL
GASTEIGER

@<TRIPOS>ATOM
      1 C          63.9495   88.3581   15.5570 C.ar    1  UNL1        0.0006
      2 C          63.3617   87.6753   16.7563 C.ar    1  UNL1        0.0016
      3 C          63.0029   86.2204   16.6901 C.ar    1  UNL1        0.0196
      4 C          63.2319   85.4482   15.4247 C.ar    1  UNL1        0.0875
      5 N          62.9789   84.0143   15.0641 N.ar    1  UNL1       -0.2412
      6 C          63.4104   83.8109   13.6420 C.ar    1  UNL1        0.1110
      7 S          63.9300   85.1191   13.1237 S.2     1  UNL1       -0.0693
      8 C          63.8197   86.1310   14.2254 C.ar    1  UNL1        0.0482
      9 C          64.1785   87.5859   14.2916 C.ar    1  UNL1        0.0080
     10 C          65.5724   91.8650   14.6529 C.ar    1  UNL1        0.0536
     11 C          65.0260   92.7230   15.7554 C.ar    1  UNL1        0.0045
     12 C          64.1208   92.1259   16.7918 C.ar    1  UNL1        0.0001
     13 C          63.7619   90.6709   16.7257 C.ar    1  UNL1        0.0000
     14 C          64.3083   89.8130   15.6232 C.ar    1  UNL1        0.0002
     15 C          65.2136   90.4101   14.5868 C.ar    1  UNL1        0.0045
     16 C          66.9418   93.1263   11.1480 C.3     1  UNL1        0.1152
     17 N          66.0365   92.5292   12.1844 N.am    1  UNL1       -0.2726
     18 C          64.6902   91.9994   11.7887 C.3     1  UNL1        0.1152
     19 C          66.4777   92.4621   13.6165 C.2     1  UNL1        0.2491
     20 O          67.8240   92.9919   14.0123 O.2     1  UNL1       -0.2699
     21 C          63.3354   82.5251   12.8731 C.3     1  UNL1        0.2129
     22 C          63.3097   82.5483   11.3736 C.2     1  UNL1        0.2430
     23 O          63.1304   81.2717   10.6067 O.2     1  UNL1       -0.2735
     24 N          63.4633   83.8481   10.6409 N.am    1  UNL1       -0.2955
     25 H          63.5810   84.6860   11.1443 H       1  UNL1        0.1499
     26 C          63.4376   83.8714    9.1413 C.3     1  UNL1        0.1757
     27 C          62.4548   84.7466    8.4215 C.2     1  UNL1        0.2425
     28 O          62.3893   84.7260    6.9231 O.2     1  UNL1       -0.2733
     29 N          61.5376   85.6423    9.2002 N.am    1  UNL1       -0.3046
     30 H          61.5806   85.6557   10.1836 H       1  UNL1        0.1494
     31 C          60.5547   86.5175    8.4804 C.3     1  UNL1        0.0717
     32 C          60.0002   87.8801    8.1872 C.3     1  UNL1        0.0213
     33 C          59.4070   86.6709    7.5270 C.3     1  UNL1        0.0213
     34 C          63.2862   81.2160   13.6039 C.1     1  UNL1        0.0881
     35 N          63.2370   79.9070   14.3347 N.1     1  UNL1       -0.1950
@<TRIPOS>BOND
     1    16    17    1
     2    17    18    1
     3    17    19   am
     4    19    20    2
     5    19    10    1
     6    10    11   ar
     7    11    12   ar
     8    12    13   ar
     9    13    14   ar
    10    14     1    1
    11     1     2   ar
    12     2     3   ar
    13     3     4   ar
    14     4     5   ar
    15     5     6   ar
    16     6    21    1
    17    21    34    1
    18    34    35    3
    19    21    22    1
    20    22    23    2
    21    22    24   am
    22    24    26    1
    23    26    27    1
    24    27    28    2
    25    27    29   am
    26    29    31    1
    27    31    32    1
    28    32    33    1
    29     6     7   ar
    30     7     8   ar
    31     8     9   ar
    32    14    15   ar
    33    15    10   ar
    34     9     1   ar
    35     8     4   ar
    36    33    31    1
    37    24    25    1
    38    29    30    1
@<TRIPOS>MOLECULE
*****
 35 38 0 0 0
SMALL
GASTEIGER

@<TRIPOS>ATOM
      1 C          63.0832   85.9089   13.0592 C.ar    1  UNL1        0.0006
      2 C          62.5077   86.5911   11.8537 C.ar    1  UNL1        0.0016
      3 C          62.7327   88.0592   11.6439 C.ar    1  UNL1        0.0196
      4 C          63.5333   88.8451   12.6397 C.ar    1  UNL1        0.0875
      5 N          63.9186   90.2936   12.6987 N.ar    1  UNL1       -0.2412
      6 C          64.7322   90.5066   13.9407 C.ar    1  UNL1        0.1110
      7 S          64.8498   89.1897   14.6493 S.2     1  UNL1       -0.0693
      8 C          64.1088   88.1629   13.8452 C.ar    1  UNL1        0.0482
      9 C          63.8838   86.6948   14.0550 C.ar    1  UNL1        0.0080
     10 C          62.8506   82.0115   12.3479 C.ar    1  UNL1        0.0536
     11 C          62.4083   81.5045   13.6885 C.ar    1  UNL1        0.0045
     12 C          62.1909   82.4657   14.8194 C.ar    1  UNL1        0.0001
     13 C          62.4159   83.9338   14.6096 C.ar    1  UNL1        0.0000
     14 C          62.8582   84.4408   13.2690 C.ar    1  UNL1        0.0002
     15 C          63.0756   83.4796   12.1381 C.ar    1  UNL1        0.0045
     16 C          62.9669   78.6344   10.2665 C.3     1  UNL1        0.1152
     17 N          62.7495   79.5956   11.3974 N.am    1  UNL1       -0.2726
     18 C          62.2137   79.1022   12.7086 C.3     1  UNL1        0.1152
     19 C          63.0680   81.0503   11.2170 C.2     1  UNL1        0.2491
     20 O          63.6038   81.5438    9.9058 O.2     1  UNL1       -0.2699
     21 C          65.3243   91.8080   14.3945 C.3     1  UNL1        0.2129
     22 C          66.2311   92.5784   13.4812 C.2     1  UNL1        0.2430
     23 O          67.0899   93.6788   14.0304 O.2     1  UNL1       -0.2735
     24 N          66.2792   92.2483   12.0188 N.am    1  UNL1       -0.2955
     25 H          65.7155   91.5260   11.6584 H       1  UNL1        0.1499
     26 C          67.1860   93.0187   11.1054 C.3     1  UNL1        0.1757
     27 C          66.6980   94.2766   10.4501 C.2     1  UNL1        0.2425
     28 O          65.9583   95.3034   11.2554 O.2     1  UNL1       -0.2733
     29 N          66.9496   94.5076    8.9896 N.am    1  UNL1       -0.3046
     30 H          67.4351   93.8336    8.4611 H       1  UNL1        0.1494
     31 C          66.4615   95.7655    8.3342 C.3     1  UNL1        0.0717
     32 C          66.6398   96.8544    7.3180 C.3     1  UNL1        0.0213
     33 C          65.4379   96.8554    8.2153 C.3     1  UNL1        0.0213
     34 C          65.0096   92.3389   15.7617 C.1     1  UNL1        0.0881
     35 N          64.6949   92.8698   17.1288 N.1     1  UNL1       -0.1950
@<TRIPOS>BOND
     1    16    17    1
     2    17    18    1
     3    17    19   am
     4    19    20    2
     5    19    10    1
     6    10    11   ar
     7    11    12   ar
     8    12    13   ar
     9    13    14   ar
    10    14     1    1
    11     1     2   ar
    12     2     3   ar
    13     3     4   ar
    14     4     5   ar
    15     5     6   ar
    16     6    21    1
    17    21    34    1
    18    34    35    3
    19    21    22    1
    20    22    23    2
    21    22    24   am
    22    24    26    1
    23    26    27    1
    24    27    28    2
    25    27    29   am
    26    29    31    1
    27    31    32    1
    28    32    33    1
    29     6     7   ar
    30     7     8   ar
    31     8     9   ar
    32    14    15   ar
    33    15    10   ar
    34     9     1   ar
    35     8     4   ar
    36    33    31    1
    37    24    25    1
    38    29    30    1
