@<TRIPOS>MOLECULE
*****
 37 41 0 0 0
SMALL
GASTEIGER

@<TRIPOS>ATOM
      1 C          64.3608   90.9281   13.8757 C.3     1  UNL1        0.2777
      2 O          65.3422   91.4697   14.8724 O.3     1  UNL1       -0.4230
      3 C          66.4183   92.1925   14.1178 C.2     1  UNL1        0.4117
      4 O          67.6027   92.8880   14.7205 O.2     1  UNL1       -0.2257
      5 N          66.1020   92.0976   12.6546 N.am    1  UNL1       -0.1902
      6 C          64.8304   91.3162   12.5049 C.2     1  UNL1        0.2797
      7 O          64.1481   90.9816   11.2116 O.2     1  UNL1       -0.2700
      8 C          61.9863   88.9593   11.5197 C.ar    1  UNL1        0.2499
      9 N          61.0032   89.5905   12.4605 N.ar    1  UNL1       -0.1071
     10 N          61.7730   90.4049   13.4576 N.ar    1  UNL1       -0.1072
     11 C          63.2319   90.2769   13.1330 C.ar    1  UNL1        0.2714
     12 O          63.3637   89.3836   11.9353 O.2     1  UNL1       -0.4156
     13 C          60.1813   87.5136    8.2944 C.ar    1  UNL1        0.1419
     14 C          60.9798   86.2660    8.0580 C.ar    1  UNL1        0.0738
     15 C          62.1137   85.9161    8.9755 C.ar    1  UNL1        0.1419
     16 C          62.4492   86.8139   10.1294 C.ar    1  UNL1        0.0418
     17 C          61.6508   88.0615   10.3657 C.ar    1  UNL1        0.0611
     18 C          60.5168   88.4113    9.4483 C.ar    1  UNL1        0.0418
     19 C          59.0630   89.1621    6.6266 C.3     1  UNL1        0.2525
     20 O          59.0474   87.8634    7.3770 O.3     1  UNL1       -0.4713
     21 O          62.9122   84.6684    8.7391 O.3     1  UNL1       -0.4713
     22 C          63.5856   83.9798    9.8890 C.3     1  UNL1        0.2525
     23 C          66.9146   92.6817   11.5372 C.3     1  UNL1        0.1082
     24 C          68.0089   91.8743   10.9042 C.3     1  UNL1        0.0270
     25 C          66.6330   94.0731   11.0528 C.ar    1  UNL1       -0.0038
     26 C          66.7651   94.4008    9.5950 C.ar    1  UNL1       -0.0027
     27 C          66.4835   95.7921    9.1105 C.ar    1  UNL1       -0.0003
     28 C          66.0697   96.8558   10.0839 C.ar    1  UNL1       -0.0000
     29 C          65.9375   96.5281   11.5416 C.ar    1  UNL1       -0.0003
     30 C          66.2191   95.1367   12.0262 C.ar    1  UNL1       -0.0027
     31 C          63.6552   90.4039   15.0911 C.3     1  UNL1        0.0849
     32 C          63.7321   88.9452   15.4321 C.ar    1  UNL1       -0.0177
     33 C          64.4818   88.0040   14.5366 C.ar    1  UNL1       -0.0041
     34 C          64.5587   86.5454   14.8776 C.ar    1  UNL1       -0.0003
     35 C          63.8858   86.0278   16.1143 C.ar    1  UNL1       -0.0000
     36 C          63.1361   86.9689   17.0098 C.ar    1  UNL1       -0.0003
     37 C          63.0592   88.4276   16.6688 C.ar    1  UNL1       -0.0041
@<TRIPOS>BOND
     1    19    20    1
     2    20    13    1
     3    13    14   ar
     4    14    15   ar
     5    15    21    1
     6    21    22    1
     7    15    16   ar
     8    16    17   ar
     9    17     8    1
    10     8     9   ar
    11     9    10   ar
    12    10    11   ar
    13    11     1    1
    14     1    31    1
    15    31    32    1
    16    32    33   ar
    17    33    34   ar
    18    34    35   ar
    19    35    36   ar
    20    36    37   ar
    21     1     2    1
    22     2     3    1
    23     3     4    2
    24     3     5   am
    25     5    23    1
    26    23    24    1
    27    23    25    1
    28    25    26   ar
    29    26    27   ar
    30    27    28   ar
    31    28    29   ar
    32    29    30   ar
    33     5     6   am
    34     6     7    2
    35    11    12   ar
    36    17    18   ar
    37    18    13   ar
    38    12     8   ar
    39     6     1    1
    40    37    32   ar
    41    30    25   ar
@<TRIPOS>MOLECULE
*****
 37 41 0 0 0
SMALL
GASTEIGER

@<TRIPOS>ATOM
      1 C          62.7467   87.2066   11.4353 C.3     1  UNL1        0.2777
      2 O          62.4960   86.0128   10.5623 O.3     1  UNL1       -0.4230
      3 C          62.7891   84.7809   11.3663 C.2     1  UNL1        0.4117
      4 O          62.6712   83.3652   10.8850 O.2     1  UNL1       -0.2257
      5 N          63.2209   85.2133   12.7362 N.am    1  UNL1       -0.1902
      6 C          63.1947   86.7124   12.7788 C.2     1  UNL1        0.2797
      7 O          63.5535   87.5674   13.9580 O.2     1  UNL1       -0.2700
      8 C          63.9005   90.6230   12.8712 C.ar    1  UNL1        0.2499
      9 N          62.4264   90.6773   13.1432 N.ar    1  UNL1       -0.1071
     10 N          61.8147   89.4041   12.6385 N.ar    1  UNL1       -0.1072
     11 C          62.9109   88.5629   12.0544 C.ar    1  UNL1        0.2714
     12 O          64.1999   89.3163   12.1983 O.2     1  UNL1       -0.4156
     13 C          66.2684   93.7899   12.5331 C.ar    1  UNL1        0.1419
     14 C          66.8983   93.8194   13.8941 C.ar    1  UNL1        0.0738
     15 C          66.5290   92.7834   14.9141 C.ar    1  UNL1        0.1419
     16 C          65.5298   91.7180   14.5731 C.ar    1  UNL1        0.0418
     17 C          64.8998   91.6885   13.2122 C.ar    1  UNL1        0.0611
     18 C          65.2691   92.7245   12.1922 C.ar    1  UNL1        0.0418
     19 C          66.9075   94.4192   10.0948 C.3     1  UNL1        0.2525
     20 O          66.6377   94.8259   11.5131 O.3     1  UNL1       -0.4713
     21 O          67.1590   92.8130   16.2751 O.3     1  UNL1       -0.4713
     22 C          68.6065   92.4554   16.4394 C.3     1  UNL1        0.2525
     23 C          63.6106   84.3059   13.8652 C.3     1  UNL1        0.1082
     24 C          64.4713   84.8224   14.9798 C.3     1  UNL1        0.0270
     25 C          63.1395   82.8818   13.8798 C.ar    1  UNL1       -0.0038
     26 C          61.7245   82.5639   14.2628 C.ar    1  UNL1       -0.0027
     27 C          61.2533   81.1399   14.2773 C.ar    1  UNL1       -0.0003
     28 C          62.1972   80.0339   13.9088 C.ar    1  UNL1       -0.0000
     29 C          63.6121   80.3518   13.5258 C.ar    1  UNL1       -0.0003
     30 C          64.0833   81.7758   13.5112 C.ar    1  UNL1       -0.0027
     31 C          62.3330   87.9843   10.2212 C.3     1  UNL1        0.0849
     32 C          61.2750   87.4410    9.3071 C.ar    1  UNL1       -0.0177
     33 C          61.5929   86.3005    8.3862 C.ar    1  UNL1       -0.0041
     34 C          60.5350   85.7573    7.4721 C.ar    1  UNL1       -0.0003
     35 C          59.1590   86.3545    7.4789 C.ar    1  UNL1       -0.0000
     36 C          58.8411   87.4950    8.3998 C.ar    1  UNL1       -0.0003
     37 C          59.8991   88.0383    9.3139 C.ar    1  UNL1       -0.0041
@<TRIPOS>BOND
     1    19    20    1
     2    20    13    1
     3    13    14   ar
     4    14    15   ar
     5    15    21    1
     6    21    22    1
     7    15    16   ar
     8    16    17   ar
     9    17     8    1
    10     8     9   ar
    11     9    10   ar
    12    10    11   ar
    13    11     1    1
    14     1    31    1
    15    31    32    1
    16    32    33   ar
    17    33    34   ar
    18    34    35   ar
    19    35    36   ar
    20    36    37   ar
    21     1     2    1
    22     2     3    1
    23     3     4    2
    24     3     5   am
    25     5    23    1
    26    23    24    1
    27    23    25    1
    28    25    26   ar
    29    26    27   ar
    30    27    28   ar
    31    28    29   ar
    32    29    30   ar
    33     5     6   am
    34     6     7    2
    35    11    12   ar
    36    17    18   ar
    37    18    13   ar
    38    12     8   ar
    39     6     1    1
    40    37    32   ar
    41    30    25   ar
@<TRIPOS>MOLECULE
*****
 37 41 0 0 0
SMALL
GASTEIGER

@<TRIPOS>ATOM
      1 C          62.7504   87.2139   11.4179 C.3     1  UNL1        0.2777
      2 O          62.5094   86.0183   10.5447 O.3     1  UNL1       -0.4230
      3 C          62.7901   84.7880   11.3555 C.2     1  UNL1        0.4117
      4 O          62.6763   83.3713   10.8762 O.2     1  UNL1       -0.2257
      5 N          63.2046   85.2232   12.7298 N.am    1  UNL1       -0.1902
      6 C          63.1800   86.7225   12.7684 C.2     1  UNL1        0.2797
      7 O          63.5247   87.5799   13.9500 O.2     1  UNL1       -0.2700
      8 C          63.8889   90.6367   12.8508 C.ar    1  UNL1        0.2499
      9 N          62.4145   90.6849   13.1223 N.ar    1  UNL1       -0.1071
     10 N          61.8085   89.4085   12.6186 N.ar    1  UNL1       -0.1072
     11 C          62.9085   88.5716   12.0358 C.ar    1  UNL1        0.2714
     12 O          64.1942   89.3307   12.1793 O.2     1  UNL1       -0.4156
     13 C          66.5033   92.8136   14.8945 C.ar    1  UNL1        0.1419
     14 C          66.8725   93.8470   13.8719 C.ar    1  UNL1        0.0738
     15 C          66.2472   93.8103   12.5089 C.ar    1  UNL1        0.1419
     16 C          65.2527   92.7403   12.1686 C.ar    1  UNL1        0.0418
     17 C          64.8835   91.7069   13.1912 C.ar    1  UNL1        0.0611
     18 C          65.5088   91.7435   14.5541 C.ar    1  UNL1        0.0418
     19 C          68.5410   92.3821   16.4474 C.3     1  UNL1        0.2525
     20 O          67.1287   92.8502   16.2574 O.3     1  UNL1       -0.4713
     21 O          66.6164   94.8438   11.4863 O.3     1  UNL1       -0.4713
     22 C          66.9220   94.4292   10.0775 C.3     1  UNL1        0.2525
     23 C          63.5781   84.3180   13.8661 C.3     1  UNL1        0.1082
     24 C          64.4144   84.8396   14.9968 C.3     1  UNL1        0.0270
     25 C          63.1152   82.8913   13.8718 C.ar    1  UNL1       -0.0038
     26 C          64.0687   81.7920   13.5079 C.ar    1  UNL1       -0.0027
     27 C          63.6059   80.3652   13.5135 C.ar    1  UNL1       -0.0003
     28 C          62.1895   80.0377   13.8831 C.ar    1  UNL1       -0.0000
     29 C          61.2360   81.1369   14.2470 C.ar    1  UNL1       -0.0003
     30 C          61.6988   82.5638   14.2414 C.ar    1  UNL1       -0.0027
     31 C          62.3538   87.9892   10.1966 C.3     1  UNL1        0.0849
     32 C          61.2702   87.4707    9.2982 C.ar    1  UNL1       -0.0177
     33 C          59.9119   88.1069    9.3170 C.ar    1  UNL1       -0.0041
     34 C          58.8284   87.5884    8.4187 C.ar    1  UNL1       -0.0003
     35 C          59.1030   86.4337    7.5015 C.ar    1  UNL1       -0.0000
     36 C          60.4613   85.7976    7.4827 C.ar    1  UNL1       -0.0003
     37 C          61.5449   86.3160    8.3810 C.ar    1  UNL1       -0.0041
@<TRIPOS>BOND
     1    19    20    1
     2    20    13    1
     3    13    14   ar
     4    14    15   ar
     5    15    21    1
     6    21    22    1
     7    15    16   ar
     8    16    17   ar
     9    17     8    1
    10     8     9   ar
    11     9    10   ar
    12    10    11   ar
    13    11     1    1
    14     1    31    1
    15    31    32    1
    16    32    33   ar
    17    33    34   ar
    18    34    35   ar
    19    35    36   ar
    20    36    37   ar
    21     1     2    1
    22     2     3    1
    23     3     4    2
    24     3     5   am
    25     5    23    1
    26    23    24    1
    27    23    25    1
    28    25    26   ar
    29    26    27   ar
    30    27    28   ar
    31    28    29   ar
    32    29    30   ar
    33     5     6   am
    34     6     7    2
    35    11    12   ar
    36    17    18   ar
    37    18    13   ar
    38    12     8   ar
    39     6     1    1
    40    37    32   ar
    41    30    25   ar
@<TRIPOS>MOLECULE
*****
 37 41 0 0 0
SMALL
GASTEIGER

@<TRIPOS>ATOM
      1 C          62.1942   87.0750   11.0413 C.3     1  UNL1        0.2777
      2 O          61.8391   85.6382   10.7969 O.3     1  UNL1       -0.4230
      3 C          62.4148   84.8217   11.9156 C.2     1  UNL1        0.4117
      4 O          62.2997   83.3342   12.0712 O.2     1  UNL1       -0.2257
      5 N          63.1257   85.7536   12.8515 N.am    1  UNL1       -0.1902
      6 C          62.9894   87.1463   12.3112 C.2     1  UNL1        0.2797
      7 O          63.5499   88.3916   12.9318 O.2     1  UNL1       -0.2700
      8 C          63.3994   90.7598   11.2290 C.ar    1  UNL1        0.2499
      9 N          61.9920   90.9395   10.7421 N.ar    1  UNL1       -0.1071
     10 N          61.3692   89.5811   10.6125 N.ar    1  UNL1       -0.1072
     11 C          62.3917   88.5618   11.0194 C.ar    1  UNL1        0.2714
     12 O          63.6464   89.2902   11.4004 O.2     1  UNL1       -0.4156
     13 C          65.8292   93.8431   10.6470 C.ar    1  UNL1        0.1419
     14 C          66.3603   94.0513   12.0343 C.ar    1  UNL1        0.0738
     15 C          65.9045   93.1623   13.1532 C.ar    1  UNL1        0.1419
     16 C          64.9175   92.0651   12.8848 C.ar    1  UNL1        0.0418
     17 C          64.3864   91.8570   11.4975 C.ar    1  UNL1        0.0611
     18 C          64.8422   92.7460   10.3786 C.ar    1  UNL1        0.0418
     19 C          67.7383   94.7906    9.1612 C.3     1  UNL1        0.2525
     20 O          66.2851   94.7322    9.5282 O.3     1  UNL1       -0.4713
     21 O          66.4357   93.3705   14.5405 O.3     1  UNL1       -0.4713
     22 C          66.0198   92.4493   15.6489 C.3     1  UNL1        0.2525
     23 C          63.8464   85.3618   14.1073 C.3     1  UNL1        0.1082
     24 C          64.9434   84.3401   14.0549 C.3     1  UNL1        0.0270
     25 C          63.4702   85.9917   15.4156 C.ar    1  UNL1       -0.0038
     26 C          62.7931   85.1733   16.4748 C.ar    1  UNL1       -0.0027
     27 C          62.4168   85.8031   17.7831 C.ar    1  UNL1       -0.0003
     28 C          62.7177   87.2514   18.0322 C.ar    1  UNL1       -0.0000
     29 C          63.3948   88.0697   16.9732 C.ar    1  UNL1       -0.0003
     30 C          63.7711   87.4399   15.6648 C.ar    1  UNL1       -0.0027
     31 C          61.4403   87.3145    9.7669 C.3     1  UNL1        0.0849
     32 C          61.5698   86.3491    8.6261 C.ar    1  UNL1       -0.0177
     33 C          62.8891   85.6934    8.3445 C.ar    1  UNL1       -0.0041
     34 C          63.0185   84.7280    7.2038 C.ar    1  UNL1       -0.0003
     35 C          61.8286   84.4183    6.3446 C.ar    1  UNL1       -0.0000
     36 C          60.5093   85.0740    6.6263 C.ar    1  UNL1       -0.0003
     37 C          60.3798   86.0394    7.7670 C.ar    1  UNL1       -0.0041
@<TRIPOS>BOND
     1    19    20    1
     2    20    13    1
     3    13    14   ar
     4    14    15   ar
     5    15    21    1
     6    21    22    1
     7    15    16   ar
     8    16    17   ar
     9    17     8    1
    10     8     9   ar
    11     9    10   ar
    12    10    11   ar
    13    11     1    1
    14     1    31    1
    15    31    32    1
    16    32    33   ar
    17    33    34   ar
    18    34    35   ar
    19    35    36   ar
    20    36    37   ar
    21     1     2    1
    22     2     3    1
    23     3     4    2
    24     3     5   am
    25     5    23    1
    26    23    24    1
    27    23    25    1
    28    25    26   ar
    29    26    27   ar
    30    27    28   ar
    31    28    29   ar
    32    29    30   ar
    33     5     6   am
    34     6     7    2
    35    11    12   ar
    36    17    18   ar
    37    18    13   ar
    38    12     8   ar
    39     6     1    1
    40    37    32   ar
    41    30    25   ar
@<TRIPOS>MOLECULE
*****
 37 41 0 0 0
SMALL
GASTEIGER

@<TRIPOS>ATOM
      1 C          62.1446   86.9752   11.0183 C.3     1  UNL1        0.2777
      2 O          61.7873   85.5361   10.7918 O.3     1  UNL1       -0.4230
      3 C          62.3761   84.7306   11.9118 C.2     1  UNL1        0.4117
      4 O          62.2635   83.2446   12.0830 O.2     1  UNL1       -0.2257
      5 N          63.0973   85.6717   12.8304 N.am    1  UNL1       -0.1902
      6 C          62.9542   87.0590   12.2782 C.2     1  UNL1        0.2797
      7 O          63.5213   88.3105   12.8803 O.2     1  UNL1       -0.2700
      8 C          63.3402   90.6641   11.1853 C.ar    1  UNL1        0.2499
      9 N          61.9474   90.8346   10.6553 N.ar    1  UNL1       -0.1071
     10 N          61.3299   89.4735   10.5282 N.ar    1  UNL1       -0.1072
     11 C          62.3412   88.4618   10.9797 C.ar    1  UNL1        0.2714
     12 O          63.5836   89.1976   11.3858 O.2     1  UNL1       -0.4156
     13 C          65.7543   93.1256   13.1510 C.ar    1  UNL1        0.1419
     14 C          66.2735   93.9715   12.0263 C.ar    1  UNL1        0.0738
     15 C          65.8149   93.7149   10.6214 C.ar    1  UNL1        0.1419
     16 C          64.8372   92.6125   10.3410 C.ar    1  UNL1        0.0418
     17 C          64.3180   91.7666   11.4657 C.ar    1  UNL1        0.0611
     18 C          64.7766   92.0231   12.8706 C.ar    1  UNL1        0.0418
     19 C          66.9395   92.3117   15.3149 C.3     1  UNL1        0.2525
     20 O          66.2128   93.3821   14.5559 O.3     1  UNL1       -0.4713
     21 O          66.3342   94.5609    9.4967 O.3     1  UNL1       -0.4713
     22 C          67.8060   94.6074    9.2109 C.3     1  UNL1        0.2525
     23 C          63.8325   85.2923   14.0816 C.3     1  UNL1        0.1082
     24 C          64.9389   84.2811   14.0240 C.3     1  UNL1        0.0270
     25 C          63.4614   85.9241   15.3904 C.ar    1  UNL1       -0.0038
     26 C          63.7889   87.3652   15.6472 C.ar    1  UNL1       -0.0027
     27 C          63.4178   87.9971   16.9560 C.ar    1  UNL1       -0.0003
     28 C          62.7191   87.1878   18.0080 C.ar    1  UNL1       -0.0000
     29 C          62.3915   85.7467   17.7514 C.ar    1  UNL1       -0.0003
     30 C          62.7627   85.1148   16.4425 C.ar    1  UNL1       -0.0027
     31 C          61.3761   87.2022    9.7503 C.3     1  UNL1        0.0849
     32 C          61.5449   86.2633    8.5927 C.ar    1  UNL1       -0.0177
     33 C          60.3734   85.9369    7.7147 C.ar    1  UNL1       -0.0041
     34 C          60.5423   84.9980    6.5571 C.ar    1  UNL1       -0.0003
     35 C          61.8827   84.3855    6.2775 C.ar    1  UNL1       -0.0000
     36 C          63.0542   84.7119    7.1556 C.ar    1  UNL1       -0.0003
     37 C          62.8853   85.6508    8.3131 C.ar    1  UNL1       -0.0041
@<TRIPOS>BOND
     1    19    20    1
     2    20    13    1
     3    13    14   ar
     4    14    15   ar
     5    15    21    1
     6    21    22    1
     7    15    16   ar
     8    16    17   ar
     9    17     8    1
    10     8     9   ar
    11     9    10   ar
    12    10    11   ar
    13    11     1    1
    14     1    31    1
    15    31    32    1
    16    32    33   ar
    17    33    34   ar
    18    34    35   ar
    19    35    36   ar
    20    36    37   ar
    21     1     2    1
    22     2     3    1
    23     3     4    2
    24     3     5   am
    25     5    23    1
    26    23    24    1
    27    23    25    1
    28    25    26   ar
    29    26    27   ar
    30    27    28   ar
    31    28    29   ar
    32    29    30   ar
    33     5     6   am
    34     6     7    2
    35    11    12   ar
    36    17    18   ar
    37    18    13   ar
    38    12     8   ar
    39     6     1    1
    40    37    32   ar
    41    30    25   ar
@<TRIPOS>MOLECULE
*****
 37 41 0 0 0
SMALL
GASTEIGER

@<TRIPOS>ATOM
      1 C          63.5174   88.2916   12.8104 C.3     1  UNL1        0.2777
      2 O          63.3039   86.8314   13.0790 O.3     1  UNL1       -0.4230
      3 C          62.3523   86.3044   12.0462 C.2     1  UNL1        0.4117
      4 O          61.8615   84.8910   11.9392 O.2     1  UNL1       -0.2257
      5 N          61.9777   87.4388   11.1392 N.am    1  UNL1       -0.1902
      6 C          62.6978   88.6670   11.6115 C.2     1  UNL1        0.2797
      7 O          62.6131   90.0312   10.9933 O.2     1  UNL1       -0.2700
      8 C          64.9053   91.8495   12.1173 C.ar    1  UNL1        0.2499
      9 N          64.1729   92.0704   13.4076 N.ar    1  UNL1       -0.1071
     10 N          63.5639   90.7645   13.8243 N.ar    1  UNL1       -0.1072
     11 C          63.9198   89.7365   12.7915 C.ar    1  UNL1        0.2714
     12 O          64.7488   90.4071   11.7365 O.2     1  UNL1       -0.4156
     13 C          65.8379   95.3001   10.3927 C.ar    1  UNL1        0.1419
     14 C          67.1733   94.9670    9.7962 C.ar    1  UNL1        0.0738
     15 C          67.7526   93.5948    9.9733 C.ar    1  UNL1        0.1419
     16 C          66.9967   92.5556   10.7470 C.ar    1  UNL1        0.0418
     17 C          65.6613   92.8887   11.3435 C.ar    1  UNL1        0.0611
     18 C          65.0820   94.2609   11.1664 C.ar    1  UNL1        0.0418
     19 C          63.9894   96.8558    9.4375 C.3     1  UNL1        0.2525
     20 O          65.2586   96.6723   10.2156 O.3     1  UNL1       -0.4713
     21 O          69.0881   93.2618    9.3767 O.3     1  UNL1       -0.4713
     22 C          69.2676   91.9892    8.6032 C.3     1  UNL1        0.2525
     23 C          61.0466   87.3590    9.9659 C.3     1  UNL1        0.1082
     24 C          59.8153   88.2148    9.9261 C.3     1  UNL1        0.0270
     25 C          61.3467   86.4236    8.8324 C.ar    1  UNL1       -0.0038
     26 C          62.7260   85.8556    8.6739 C.ar    1  UNL1       -0.0027
     27 C          63.0262   84.9202    7.5405 C.ar    1  UNL1       -0.0003
     28 C          61.9471   84.5527    6.5655 C.ar    1  UNL1       -0.0000
     29 C          60.5679   85.1206    6.7240 C.ar    1  UNL1       -0.0003
     30 C          60.2677   86.0561    7.8575 C.ar    1  UNL1       -0.0027
     31 C          64.4211   88.2183   14.0053 C.3     1  UNL1        0.0849
     32 C          63.9226   87.6194   15.2870 C.ar    1  UNL1       -0.0177
     33 C          64.0650   86.1464   15.5319 C.ar    1  UNL1       -0.0041
     34 C          63.5666   85.5475   16.8136 C.ar    1  UNL1       -0.0003
     35 C          62.9256   86.4216   17.8505 C.ar    1  UNL1       -0.0000
     36 C          62.7832   87.8946   17.6056 C.ar    1  UNL1       -0.0003
     37 C          63.2817   88.4935   16.3239 C.ar    1  UNL1       -0.0041
@<TRIPOS>BOND
     1    19    20    1
     2    20    13    1
     3    13    14   ar
     4    14    15   ar
     5    15    21    1
     6    21    22    1
     7    15    16   ar
     8    16    17   ar
     9    17     8    1
    10     8     9   ar
    11     9    10   ar
    12    10    11   ar
    13    11     1    1
    14     1    31    1
    15    31    32    1
    16    32    33   ar
    17    33    34   ar
    18    34    35   ar
    19    35    36   ar
    20    36    37   ar
    21     1     2    1
    22     2     3    1
    23     3     4    2
    24     3     5   am
    25     5    23    1
    26    23    24    1
    27    23    25    1
    28    25    26   ar
    29    26    27   ar
    30    27    28   ar
    31    28    29   ar
    32    29    30   ar
    33     5     6   am
    34     6     7    2
    35    11    12   ar
    36    17    18   ar
    37    18    13   ar
    38    12     8   ar
    39     6     1    1
    40    37    32   ar
    41    30    25   ar
@<TRIPOS>MOLECULE
*****
 37 41 0 0 0
SMALL
GASTEIGER

@<TRIPOS>ATOM
      1 C          61.6782   87.6255   10.8843 C.3     1  UNL1        0.2777
      2 O          62.4597   87.6104   12.1646 O.3     1  UNL1       -0.4230
      3 C          63.0813   86.2534   12.3122 C.2     1  UNL1        0.4117
      4 O          63.9481   85.7996   13.4492 O.2     1  UNL1       -0.2257
      5 N          62.6841   85.4297   11.1232 N.am    1  UNL1       -0.1902
      6 C          61.8169   86.2777   10.2407 C.2     1  UNL1        0.2797
      7 O          61.1972   85.8526    8.9425 O.2     1  UNL1       -0.2700
      8 C          59.9578   89.0082    7.6916 C.ar    1  UNL1        0.2499
      9 N          59.0952   87.8188    7.9937 N.ar    1  UNL1       -0.1071
     10 N          59.6346   87.1560    9.2264 N.ar    1  UNL1       -0.1072
     11 C          60.8307   87.9359    9.6863 C.ar    1  UNL1        0.2714
     12 O          61.0304   89.0805    8.7376 O.2     1  UNL1       -0.4156
     13 C          60.7848   91.3227    4.5756 C.ar    1  UNL1        0.1419
     14 C          59.4220   91.8587    4.2511 C.ar    1  UNL1        0.0738
     15 C          58.2378   91.4446    5.0733 C.ar    1  UNL1        0.1419
     16 C          58.4164   90.4944    6.2202 C.ar    1  UNL1        0.0418
     17 C          59.7792   89.9584    6.5447 C.ar    1  UNL1        0.0611
     18 C          60.9634   90.3725    5.7224 C.ar    1  UNL1        0.0418
     19 C          61.7758   92.5989    2.5411 C.3     1  UNL1        0.2525
     20 O          61.9690   91.7368    3.7533 O.3     1  UNL1       -0.4713
     21 O          56.8749   91.9807    4.7487 O.3     1  UNL1       -0.4713
     22 C          55.6531   91.1811    5.0921 C.3     1  UNL1        0.2525
     23 C          63.0839   84.0077   10.8625 C.3     1  UNL1        0.1082
     24 C          63.7696   83.6447    9.5787 C.3     1  UNL1        0.0270
     25 C          62.7981   82.9486   11.8855 C.ar    1  UNL1       -0.0038
     26 C          62.9399   81.4995   11.5246 C.ar    1  UNL1       -0.0027
     27 C          62.6541   80.4404   12.5476 C.ar    1  UNL1       -0.0003
     28 C          62.2264   80.8303   13.9314 C.ar    1  UNL1       -0.0000
     29 C          62.0845   82.2793   14.2923 C.ar    1  UNL1       -0.0003
     30 C          62.3704   83.3385   13.2693 C.ar    1  UNL1       -0.0027
     31 C          61.3623   89.0381   11.2775 C.3     1  UNL1        0.0849
     32 C          62.4741   90.0029   11.5658 C.ar    1  UNL1       -0.0177
     33 C          63.0843   90.7990   10.4506 C.ar    1  UNL1       -0.0041
     34 C          64.1961   91.7638   10.7389 C.ar    1  UNL1       -0.0003
     35 C          64.6977   91.9324   12.1424 C.ar    1  UNL1       -0.0000
     36 C          64.0874   91.1363   13.2576 C.ar    1  UNL1       -0.0003
     37 C          62.9756   90.1715   12.9693 C.ar    1  UNL1       -0.0041
@<TRIPOS>BOND
     1    19    20    1
     2    20    13    1
     3    13    14   ar
     4    14    15   ar
     5    15    21    1
     6    21    22    1
     7    15    16   ar
     8    16    17   ar
     9    17     8    1
    10     8     9   ar
    11     9    10   ar
    12    10    11   ar
    13    11     1    1
    14     1    31    1
    15    31    32    1
    16    32    33   ar
    17    33    34   ar
    18    34    35   ar
    19    35    36   ar
    20    36    37   ar
    21     1     2    1
    22     2     3    1
    23     3     4    2
    24     3     5   am
    25     5    23    1
    26    23    24    1
    27    23    25    1
    28    25    26   ar
    29    26    27   ar
    30    27    28   ar
    31    28    29   ar
    32    29    30   ar
    33     5     6   am
    34     6     7    2
    35    11    12   ar
    36    17    18   ar
    37    18    13   ar
    38    12     8   ar
    39     6     1    1
    40    37    32   ar
    41    30    25   ar
@<TRIPOS>MOLECULE
*****
 37 41 0 0 0
SMALL
GASTEIGER

@<TRIPOS>ATOM
      1 C          61.6599   87.6327   10.8264 C.3     1  UNL1        0.2777
      2 O          62.4146   87.6301   12.1227 O.3     1  UNL1       -0.4230
      3 C          63.0376   86.2764   12.2935 C.2     1  UNL1        0.4117
      4 O          63.8821   85.8343   13.4518 O.2     1  UNL1       -0.2257
      5 N          62.6681   85.4424   11.1029 N.am    1  UNL1       -0.1902
      6 C          61.8165   86.2806   10.1961 C.2     1  UNL1        0.2797
      7 O          61.2254   85.8435    8.8885 O.2     1  UNL1       -0.2700
      8 C          59.9777   89.0065    7.6095 C.ar    1  UNL1        0.2499
      9 N          59.1609   87.7736    7.8598 N.ar    1  UNL1       -0.1071
     10 N          59.6915   87.1089    9.0953 N.ar    1  UNL1       -0.1072
     11 C          60.8364   87.9310    9.6086 C.ar    1  UNL1        0.2714
     12 O          61.0133   89.1038    8.6903 O.2     1  UNL1       -0.4156
     13 C          58.2355   91.4525    5.0148 C.ar    1  UNL1        0.1419
     14 C          59.4195   91.9046    4.2125 C.ar    1  UNL1        0.0738
     15 C          60.7896   91.3907    4.5425 C.ar    1  UNL1        0.1419
     16 C          60.9756   90.4247    5.6748 C.ar    1  UNL1        0.0418
     17 C          59.7917   89.9726    6.4771 C.ar    1  UNL1        0.0611
     18 C          58.4216   90.4865    6.1471 C.ar    1  UNL1        0.0418
     19 C          55.6522   91.1931    5.1090 C.3     1  UNL1        0.2525
     20 O          56.8655   91.9663    4.6848 O.3     1  UNL1       -0.4713
     21 O          61.9736   91.8429    3.7401 O.3     1  UNL1       -0.4713
     22 C          63.0576   90.8677    3.3880 C.3     1  UNL1        0.2525
     23 C          63.0780   84.0198   10.8613 C.3     1  UNL1        0.1082
     24 C          63.7741   83.6461    9.5863 C.3     1  UNL1        0.0270
     25 C          62.7918   82.9710   11.8948 C.ar    1  UNL1       -0.0038
     26 C          62.9362   81.5185   11.5493 C.ar    1  UNL1       -0.0027
     27 C          62.6500   80.4697   12.5827 C.ar    1  UNL1       -0.0003
     28 C          62.2194   80.8734   13.9617 C.ar    1  UNL1       -0.0000
     29 C          62.0750   82.3258   14.3072 C.ar    1  UNL1       -0.0003
     30 C          62.3612   83.3747   13.2738 C.ar    1  UNL1       -0.0027
     31 C          61.3311   89.0472   11.2021 C.3     1  UNL1        0.0849
     32 C          62.4322   90.0111   11.5310 C.ar    1  UNL1       -0.0177
     33 C          63.0622   90.8297   10.4434 C.ar    1  UNL1       -0.0041
     34 C          64.1634   91.7937   10.7724 C.ar    1  UNL1       -0.0003
     35 C          64.6346   91.9390   12.1890 C.ar    1  UNL1       -0.0000
     36 C          64.0046   91.1204   13.2766 C.ar    1  UNL1       -0.0003
     37 C          62.9034   90.1565   12.9477 C.ar    1  UNL1       -0.0041
@<TRIPOS>BOND
     1    19    20    1
     2    20    13    1
     3    13    14   ar
     4    14    15   ar
     5    15    21    1
     6    21    22    1
     7    15    16   ar
     8    16    17   ar
     9    17     8    1
    10     8     9   ar
    11     9    10   ar
    12    10    11   ar
    13    11     1    1
    14     1    31    1
    15    31    32    1
    16    32    33   ar
    17    33    34   ar
    18    34    35   ar
    19    35    36   ar
    20    36    37   ar
    21     1     2    1
    22     2     3    1
    23     3     4    2
    24     3     5   am
    25     5    23    1
    26    23    24    1
    27    23    25    1
    28    25    26   ar
    29    26    27   ar
    30    27    28   ar
    31    28    29   ar
    32    29    30   ar
    33     5     6   am
    34     6     7    2
    35    11    12   ar
    36    17    18   ar
    37    18    13   ar
    38    12     8   ar
    39     6     1    1
    40    37    32   ar
    41    30    25   ar
@<TRIPOS>MOLECULE
*****
 37 41 0 0 0
SMALL
GASTEIGER

@<TRIPOS>ATOM
      1 C          63.5488   88.4042   12.9269 C.3     1  UNL1        0.2777
      2 O          63.8727   89.8316   12.5990 O.3     1  UNL1       -0.4230
      3 C          62.9819   90.2618   11.4716 C.2     1  UNL1        0.4117
      4 O          62.9679   91.6159   10.8263 O.2     1  UNL1       -0.2257
      5 N          62.1074   89.1004   11.1026 N.am    1  UNL1       -0.1902
      6 C          62.4578   87.9523   12.0021 C.2     1  UNL1        0.2797
      7 O          61.8277   86.5911   11.9805 O.2     1  UNL1       -0.2700
      8 C          63.0786   84.6173   13.6367 C.ar    1  UNL1        0.2499
      9 N          63.5103   85.1134   14.9848 N.ar    1  UNL1       -0.1071
     10 N          63.7390   86.5924   14.8831 N.ar    1  UNL1       -0.1072
     11 C          63.4486   87.0103   13.4720 C.ar    1  UNL1        0.2714
     12 O          63.0404   85.7896   12.7017 O.2     1  UNL1       -0.4156
     13 C          61.5055   80.9786   13.8247 C.ar    1  UNL1        0.1419
     14 C          62.0740   80.3594   12.5824 C.ar    1  UNL1        0.0738
     15 C          62.9775   81.1595   11.6915 C.ar    1  UNL1        0.1419
     16 C          63.3123   82.5788   12.0429 C.ar    1  UNL1        0.0418
     17 C          62.7437   83.1980   13.2852 C.ar    1  UNL1        0.0611
     18 C          61.8403   82.3979   14.1761 C.ar    1  UNL1        0.0418
     19 C          59.1499   80.0286   14.3711 C.3     1  UNL1        0.2525
     20 O          60.6020   80.1785   14.7156 O.3     1  UNL1       -0.4713
     21 O          63.5461   80.5403   10.4492 O.3     1  UNL1       -0.4713
     22 C          62.8179   79.4188    9.7694 C.3     1  UNL1        0.2525
     23 C          61.0654   89.0890   10.0237 C.3     1  UNL1        0.1082
     24 C          60.1667   90.2752    9.8363 C.3     1  UNL1        0.0270
     25 C          60.9222   87.8913    9.1320 C.ar    1  UNL1       -0.0038
     26 C          59.6160   87.6183    8.4468 C.ar    1  UNL1       -0.0027
     27 C          59.4727   86.4207    7.5552 C.ar    1  UNL1       -0.0003
     28 C          60.6356   85.4960    7.3487 C.ar    1  UNL1       -0.0000
     29 C          61.9417   85.7689    8.0338 C.ar    1  UNL1       -0.0003
     30 C          62.0851   86.9666    8.9255 C.ar    1  UNL1       -0.0027
     31 C          64.6189   88.5647   13.9657 C.3     1  UNL1        0.0849
     32 C          64.6948   89.8249   14.7757 C.ar    1  UNL1       -0.0177
     33 C          65.8084   90.8019   14.5404 C.ar    1  UNL1       -0.0041
     34 C          65.8843   92.0620   15.3504 C.ar    1  UNL1       -0.0003
     35 C          64.8466   92.3453   16.3958 C.ar    1  UNL1       -0.0000
     36 C          63.7330   91.3684   16.6312 C.ar    1  UNL1       -0.0003
     37 C          63.6571   90.1082   15.8212 C.ar    1  UNL1       -0.0041
@<TRIPOS>BOND
     1    19    20    1
     2    20    13    1
     3    13    14   ar
     4    14    15   ar
     5    15    21    1
     6    21    22    1
     7    15    16   ar
     8    16    17   ar
     9    17     8    1
    10     8     9   ar
    11     9    10   ar
    12    10    11   ar
    13    11     1    1
    14     1    31    1
    15    31    32    1
    16    32    33   ar
    17    33    34   ar
    18    34    35   ar
    19    35    36   ar
    20    36    37   ar
    21     1     2    1
    22     2     3    1
    23     3     4    2
    24     3     5   am
    25     5    23    1
    26    23    24    1
    27    23    25    1
    28    25    26   ar
    29    26    27   ar
    30    27    28   ar
    31    28    29   ar
    32    29    30   ar
    33     5     6   am
    34     6     7    2
    35    11    12   ar
    36    17    18   ar
    37    18    13   ar
    38    12     8   ar
    39     6     1    1
    40    37    32   ar
    41    30    25   ar
