@<TRIPOS>MOLECULE
*****
 26 28 0 0 0
SMALL
GASTEIGER

@<TRIPOS>ATOM
      1 N          64.0352   88.8883   15.0066 N.am    1  UNL1       -0.3004
      2 C          64.0078   87.6008   14.2373 C.2     1  UNL1        0.2252
      3 O          63.4253   87.5650   12.8556 O.2     1  UNL1       -0.2750
      4 H          64.4175   88.9118   15.9136 H       1  UNL1        0.1497
      5 C          63.4800   90.1399   14.3941 C.3     1  UNL1        0.1163
      6 C          65.9896   92.5549   11.5446 C.ar    1  UNL1        0.0479
      7 C          66.4611   92.3257   12.9500 C.ar    1  UNL1        0.0142
      8 C          65.6246   91.5207   13.8998 C.ar    1  UNL1       -0.0014
      9 C          64.3165   90.9449   13.4443 C.ar    1  UNL1       -0.0025
     10 C          63.8450   91.1741   12.0389 C.ar    1  UNL1       -0.0014
     11 C          64.6816   91.9791   11.0890 C.ar    1  UNL1        0.0142
     12 C          67.8436   92.6782    9.7288 C.3     1  UNL1        0.1122
     13 N          66.8262   93.3599   10.5948 N.pl3   1  UNL1       -0.3041
     14 C          66.6452   94.8466   10.5111 C.3     1  UNL1        0.1122
     15 C          64.5630   86.3491   14.8499 C.3     1  UNL1        0.1154
     16 C          63.6438   85.2218   15.2158 C.3     1  UNL1        0.1377
     17 C          63.4898   85.9740   16.5043 C.3     1  UNL1        0.0335
     18 C          63.9899   84.7051   13.8508 C.3     1  UNL1        0.0613
     19 C          63.2524   83.4156   13.6423 C.3     1  UNL1        0.1290
     20 C          62.4559   82.1463   13.5781 C.3     1  UNL1        0.0305
     21 C          62.5107   81.2879   12.3492 C.3     1  UNL1        0.0025
     22 C          63.3621   81.6989   11.1846 C.3     1  UNL1        0.0002
     23 C          64.1587   82.9682   11.2489 C.3     1  UNL1        0.0025
     24 C          64.1038   83.8266   12.4778 C.3     1  UNL1        0.0305
     25 O          62.4504   83.1353   14.8786 O.3     1  UNL1       -0.2256
     26 O          62.6923   84.2516   15.8511 O.3     1  UNL1       -0.2251
@<TRIPOS>BOND
     1    12    13    1
     2    13    14    1
     3    13     6    1
     4     6     7   ar
     5     7     8   ar
     6     8     9   ar
     7     9     5    1
     8     5     1    1
     9     1     2   am
    10     2     3    2
    11     2    15    1
    12    15    16    1
    13    16    17    1
    14    16    18    1
    15    18    19    1
    16    19    20    1
    17    20    21    1
    18    21    22    1
    19    22    23    1
    20    23    24    1
    21    19    25    1
    22    25    26    1
    23     9    10   ar
    24    10    11   ar
    25    11     6   ar
    26    26    16    1
    27    24    19    1
    28     1     4    1
@<TRIPOS>MOLECULE
*****
 26 28 0 0 0
SMALL
GASTEIGER

@<TRIPOS>ATOM
      1 N          62.3128   84.7163   15.8341 N.am    1  UNL1       -0.3004
      2 C          63.1451   83.7646   15.0267 C.2     1  UNL1        0.2252
      3 O          64.6414   83.8114   15.1205 O.2     1  UNL1       -0.2750
      4 H          61.3307   84.6856   15.7725 H       1  UNL1        0.1497
      5 C          62.9770   85.7146   16.7352 C.3     1  UNL1        0.1163
      6 C          64.1652   89.7491   15.1349 C.ar    1  UNL1        0.0479
      7 C          64.5448   88.5047   14.3884 C.ar    1  UNL1        0.0142
      8 C          64.1487   87.1598   14.9218 C.ar    1  UNL1       -0.0014
      9 C          63.3731   87.0594   16.2018 C.ar    1  UNL1       -0.0025
     10 C          62.9935   88.3039   16.9483 C.ar    1  UNL1       -0.0014
     11 C          63.3897   89.6487   16.4148 C.ar    1  UNL1        0.0142
     12 C          65.3132   92.0550   15.4737 C.3     1  UNL1        0.1122
     13 N          64.5614   91.0939   14.6014 N.pl3   1  UNL1       -0.3041
     14 C          64.2056   91.4775   13.1956 C.3     1  UNL1        0.1122
     15 C          62.4810   82.7662   14.1254 C.3     1  UNL1        0.1154
     16 C          63.0955   82.4272   12.7999 C.3     1  UNL1        0.1377
     17 C          63.4757   81.1460   13.4810 C.3     1  UNL1        0.0335
     18 C          62.5870   83.7793   12.3958 C.3     1  UNL1        0.0613
     19 C          62.9667   84.0082   10.9627 C.3     1  UNL1        0.1290
     20 C          63.4132   84.0949    9.5334 C.3     1  UNL1        0.0305
     21 C          63.1039   85.3194    8.7241 C.3     1  UNL1        0.0025
     22 C          62.3482   86.4571    9.3442 C.3     1  UNL1        0.0002
     23 C          61.9018   86.3704   10.7735 C.3     1  UNL1        0.0025
     24 C          62.2110   85.1459   11.5828 C.3     1  UNL1        0.0305
     25 O          63.7100   82.7975   10.4812 O.3     1  UNL1       -0.2256
     26 O          63.7896   81.8204   11.6166 O.3     1  UNL1       -0.2251
@<TRIPOS>BOND
     1    12    13    1
     2    13    14    1
     3    13     6    1
     4     6     7   ar
     5     7     8   ar
     6     8     9   ar
     7     9     5    1
     8     5     1    1
     9     1     2   am
    10     2     3    2
    11     2    15    1
    12    15    16    1
    13    16    17    1
    14    16    18    1
    15    18    19    1
    16    19    20    1
    17    20    21    1
    18    21    22    1
    19    22    23    1
    20    23    24    1
    21    19    25    1
    22    25    26    1
    23     9    10   ar
    24    10    11   ar
    25    11     6   ar
    26    26    16    1
    27    24    19    1
    28     1     4    1
@<TRIPOS>MOLECULE
*****
 26 28 0 0 0
SMALL
GASTEIGER

@<TRIPOS>ATOM
      1 N          63.5926   87.4477   13.1773 N.am    1  UNL1       -0.3004
      2 C          64.2677   87.5975   14.5084 C.2     1  UNL1        0.2252
      3 O          64.5896   88.9639   15.0366 O.2     1  UNL1       -0.2750
      4 H          63.3813   86.5508   12.8306 H       1  UNL1        0.1497
      5 C          63.2394   88.6646   12.3744 C.3     1  UNL1        0.1163
      6 C          60.4529   88.3098    8.8589 C.ar    1  UNL1        0.0479
      7 C          60.7693   89.6594    9.4318 C.ar    1  UNL1        0.0142
      8 C          61.6982   89.7777   10.6037 C.ar    1  UNL1       -0.0014
      9 C          62.3106   88.5463   11.2026 C.ar    1  UNL1       -0.0025
     10 C          61.9941   87.1967   10.6296 C.ar    1  UNL1       -0.0014
     11 C          61.0652   87.0785    9.4577 C.ar    1  UNL1        0.0142
     12 C          59.3143   89.3638    6.7750 C.3     1  UNL1        0.1122
     13 N          59.5240   88.1916    7.6870 N.pl3   1  UNL1       -0.3041
     14 C          58.8048   86.9011    7.4272 C.3     1  UNL1        0.1122
     15 C          64.6210   86.3806   15.3113 C.3     1  UNL1        0.1154
     16 C          63.5888   85.3212   15.5608 C.3     1  UNL1        0.1377
     17 C          63.3415   86.0828   16.8292 C.3     1  UNL1        0.0335
     18 C          64.0519   84.7811   14.2403 C.3     1  UNL1        0.0613
     19 C          63.2542   83.5470   13.9388 C.3     1  UNL1        0.1290
     20 C          62.3829   82.3372   13.7739 C.3     1  UNL1        0.0305
     21 C          62.5177   81.4768   12.5526 C.3     1  UNL1        0.0025
     22 C          63.5237   81.8262   11.4963 C.3     1  UNL1        0.0002
     23 C          64.3950   83.0360   11.6612 C.3     1  UNL1        0.0025
     24 C          64.2602   83.8964   12.8825 C.3     1  UNL1        0.0305
     25 O          62.2982   83.3244   15.0730 O.3     1  UNL1       -0.2256
     26 O          62.5049   84.4210   16.0755 O.3     1  UNL1       -0.2251
@<TRIPOS>BOND
     1    12    13    1
     2    13    14    1
     3    13     6    1
     4     6     7   ar
     5     7     8   ar
     6     8     9   ar
     7     9     5    1
     8     5     1    1
     9     1     2   am
    10     2     3    2
    11     2    15    1
    12    15    16    1
    13    16    17    1
    14    16    18    1
    15    18    19    1
    16    19    20    1
    17    20    21    1
    18    21    22    1
    19    22    23    1
    20    23    24    1
    21    19    25    1
    22    25    26    1
    23     9    10   ar
    24    10    11   ar
    25    11     6   ar
    26    26    16    1
    27    24    19    1
    28     1     4    1
@<TRIPOS>MOLECULE
*****
 26 28 0 0 0
SMALL
GASTEIGER

@<TRIPOS>ATOM
      1 N          62.3602   89.4340   10.3974 N.am    1  UNL1       -0.3004
      2 C          60.9272   89.0788   10.6630 C.2     1  UNL1        0.2252
      3 O          59.9565   90.1420   11.0836 O.2     1  UNL1       -0.2750
      4 H          62.9973   88.7362   10.1213 H       1  UNL1        0.1497
      5 C          62.8222   90.8526   10.5524 C.3     1  UNL1        0.1163
      6 C          65.8439   91.9014   13.7178 C.ar    1  UNL1        0.0479
      7 C          65.9092   92.5593   12.3713 C.ar    1  UNL1        0.0142
      8 C          64.9019   92.2097   11.3162 C.ar    1  UNL1       -0.0014
      9 C          63.8295   91.2022   11.6075 C.ar    1  UNL1       -0.0025
     10 C          63.7642   90.5444   12.9540 C.ar    1  UNL1       -0.0014
     11 C          64.7715   90.8941   14.0091 C.ar    1  UNL1        0.0142
     12 C          66.3933   92.6403   16.1472 C.3     1  UNL1        0.1122
     13 N          66.8512   92.2511   14.7729 N.pl3   1  UNL1       -0.3041
     14 C          68.3162   92.2115   14.4535 C.3     1  UNL1        0.1122
     15 C          60.4651   87.6601   10.5079 C.3     1  UNL1        0.1154
     16 C          61.1380   86.7562    9.5181 C.3     1  UNL1        0.1377
     17 C          60.3698   87.5530    8.5056 C.3     1  UNL1        0.0335
     18 C          61.7656   86.1483   10.7374 C.3     1  UNL1        0.0613
     19 C          62.6658   85.0352   10.2895 C.3     1  UNL1        0.1290
     20 C          63.5227   83.9573    9.6948 C.3     1  UNL1        0.0305
     21 C          64.3490   83.0786   10.5864 C.3     1  UNL1        0.0025
     22 C          64.3184   83.2779   12.0728 C.3     1  UNL1        0.0002
     23 C          63.4615   84.3558   12.6675 C.3     1  UNL1        0.0025
     24 C          62.6352   85.2345   11.7758 C.3     1  UNL1        0.0305
     25 O          62.5947   84.9551    8.7933 O.3     1  UNL1       -0.2256
     26 O          61.6504   86.0187    8.3165 O.3     1  UNL1       -0.2251
@<TRIPOS>BOND
     1    12    13    1
     2    13    14    1
     3    13     6    1
     4     6     7   ar
     5     7     8   ar
     6     8     9   ar
     7     9     5    1
     8     5     1    1
     9     1     2   am
    10     2     3    2
    11     2    15    1
    12    15    16    1
    13    16    17    1
    14    16    18    1
    15    18    19    1
    16    19    20    1
    17    20    21    1
    18    21    22    1
    19    22    23    1
    20    23    24    1
    21    19    25    1
    22    25    26    1
    23     9    10   ar
    24    10    11   ar
    25    11     6   ar
    26    26    16    1
    27    24    19    1
    28     1     4    1
@<TRIPOS>MOLECULE
*****
 26 28 0 0 0
SMALL
GASTEIGER

@<TRIPOS>ATOM
      1 N          62.5442   88.6525   12.1234 N.am    1  UNL1       -0.3004
      2 C          61.0737   88.6052   11.8308 C.2     1  UNL1        0.2252
      3 O          60.1558   89.6268   12.4339 O.2     1  UNL1       -0.2750
      4 H          63.1467   87.9820   11.7275 H       1  UNL1        0.1497
      5 C          63.0966   89.7214   13.0191 C.3     1  UNL1        0.1163
      6 C          65.5752   93.0522   11.2835 C.ar    1  UNL1        0.0479
      7 C          64.5505   92.3594   10.4350 C.ar    1  UNL1        0.0142
      8 C          63.7243   91.2491   11.0135 C.ar    1  UNL1       -0.0014
      9 C          63.9228   90.8317   12.4405 C.ar    1  UNL1       -0.0025
     10 C          64.9475   91.5245   13.2890 C.ar    1  UNL1       -0.0014
     11 C          65.7737   92.6348   12.7104 C.ar    1  UNL1        0.0142
     12 C          67.4061   93.8683    9.6307 C.3     1  UNL1        0.1122
     13 N          66.4014   94.1625   10.7049 N.pl3   1  UNL1       -0.3041
     14 C          66.2227   95.5669   11.2006 C.3     1  UNL1        0.1122
     15 C          60.5212   87.5363   10.9350 C.3     1  UNL1        0.1154
     16 C          61.3823   86.9373    9.8629 C.3     1  UNL1        0.1377
     17 C          60.8534   88.0651    9.0272 C.3     1  UNL1        0.0335
     18 C          61.7312   85.9348   10.9227 C.3     1  UNL1        0.0613
     19 C          62.6975   84.9518   10.3308 C.3     1  UNL1        0.1290
     20 C          63.6529   84.0511    9.6056 C.3     1  UNL1        0.0305
     21 C          64.2636   82.8789   10.3148 C.3     1  UNL1        0.0025
     22 C          63.9189   82.6075   11.7492 C.3     1  UNL1        0.0002
     23 C          62.9635   83.5081   12.4744 C.3     1  UNL1        0.0025
     24 C          62.3528   84.6803   11.7652 C.3     1  UNL1        0.0305
     25 O          62.9458   85.3469    8.9052 O.3     1  UNL1       -0.2256
     26 O          62.1329   86.5740    8.6160 O.3     1  UNL1       -0.2251
@<TRIPOS>BOND
     1    12    13    1
     2    13    14    1
     3    13     6    1
     4     6     7   ar
     5     7     8   ar
     6     8     9   ar
     7     9     5    1
     8     5     1    1
     9     1     2   am
    10     2     3    2
    11     2    15    1
    12    15    16    1
    13    16    17    1
    14    16    18    1
    15    18    19    1
    16    19    20    1
    17    20    21    1
    18    21    22    1
    19    22    23    1
    20    23    24    1
    21    19    25    1
    22    25    26    1
    23     9    10   ar
    24    10    11   ar
    25    11     6   ar
    26    26    16    1
    27    24    19    1
    28     1     4    1
@<TRIPOS>MOLECULE
*****
 26 28 0 0 0
SMALL
GASTEIGER

@<TRIPOS>ATOM
      1 N          62.8514   90.6511   12.8437 N.am    1  UNL1       -0.3004
      2 C          64.2397   91.1723   13.0701 C.2     1  UNL1        0.2252
      3 O          64.9085   92.0064   12.0181 O.2     1  UNL1       -0.2750
      4 H          62.4124   90.1037   13.5342 H       1  UNL1        0.1497
      5 C          62.1321   90.9642   11.5652 C.3     1  UNL1        0.1163
      6 C          60.7796   87.6250    8.8689 C.ar    1  UNL1        0.0479
      7 C          60.0687   88.9456    8.8418 C.ar    1  UNL1        0.0142
      8 C          60.5195   90.0586    9.7405 C.ar    1  UNL1       -0.0014
      9 C          61.6812   89.8511   10.6665 C.ar    1  UNL1       -0.0025
     10 C          62.3922   88.5306   10.6936 C.ar    1  UNL1       -0.0014
     11 C          61.9412   87.4175    9.7947 C.ar    1  UNL1        0.0142
     12 C          58.8879   86.4120    7.5650 C.3     1  UNL1        0.1122
     13 N          60.3287   86.5119    7.9700 N.pl3   1  UNL1       -0.3041
     14 C          61.3186   85.4990    7.4763 C.3     1  UNL1        0.1122
     15 C          64.9591   90.8593   14.3487 C.3     1  UNL1        0.1154
     16 C          64.1807   90.4829   15.5743 C.3     1  UNL1        0.1377
     17 C          64.1729   91.9607   15.8314 C.3     1  UNL1        0.0335
     18 C          64.3512   89.0838   15.0611 C.3     1  UNL1        0.0613
     19 C          63.6765   88.1516   16.0233 C.3     1  UNL1        0.1290
     20 C          62.9638   87.3467   17.0693 C.3     1  UNL1        0.0305
     21 C          62.8896   85.8537   16.9453 C.3     1  UNL1        0.0025
     22 C          63.5281   85.1656   15.7753 C.3     1  UNL1        0.0002
     23 C          64.2407   85.9705   14.7293 C.3     1  UNL1        0.0025
     24 C          64.3149   87.4635   14.8533 C.3     1  UNL1        0.0305
     25 O          63.0890   88.9746   17.1313 O.3     1  UNL1       -0.2256
     26 O          63.4006   90.4155   16.8538 O.3     1  UNL1       -0.2251
@<TRIPOS>BOND
     1    12    13    1
     2    13    14    1
     3    13     6    1
     4     6     7   ar
     5     7     8   ar
     6     8     9   ar
     7     9     5    1
     8     5     1    1
     9     1     2   am
    10     2     3    2
    11     2    15    1
    12    15    16    1
    13    16    17    1
    14    16    18    1
    15    18    19    1
    16    19    20    1
    17    20    21    1
    18    21    22    1
    19    22    23    1
    20    23    24    1
    21    19    25    1
    22    25    26    1
    23     9    10   ar
    24    10    11   ar
    25    11     6   ar
    26    26    16    1
    27    24    19    1
    28     1     4    1
@<TRIPOS>MOLECULE
*****
 26 28 0 0 0
SMALL
GASTEIGER

@<TRIPOS>ATOM
      1 N          64.0414   88.1921   13.7648 N.am    1  UNL1       -0.3004
      2 C          63.2594   89.3719   14.2613 C.2     1  UNL1        0.2252
      3 O          62.7573   89.3979   15.6745 O.2     1  UNL1       -0.2750
      4 H          64.3709   88.1750   12.8372 H       1  UNL1        0.1497
      5 C          64.3213   87.0383   14.6815 C.3     1  UNL1        0.1163
      6 C          62.7332   82.9449   13.6959 C.ar    1  UNL1        0.0479
      7 C          62.9401   83.9520   12.6037 C.ar    1  UNL1        0.0142
      8 C          63.4695   85.3165   12.9323 C.ar    1  UNL1       -0.0014
      9 C          63.7919   85.6738   14.3530 C.ar    1  UNL1       -0.0025
     10 C          63.5850   84.6667   15.4451 C.ar    1  UNL1       -0.0014
     11 C          63.0556   83.3021   15.1165 C.ar    1  UNL1        0.0142
     12 C          62.8022   80.7959   12.2375 C.3     1  UNL1        0.1122
     13 N          62.2038   81.5803   13.3672 N.pl3   1  UNL1       -0.3041
     14 C          61.0761   81.0005   14.1685 C.3     1  UNL1        0.1122
     15 C          62.9795   90.5258   13.3445 C.3     1  UNL1        0.1154
     16 C          64.1069   91.1959   12.6168 C.3     1  UNL1        0.1377
     17 C          63.3397   90.8027   11.3892 C.3     1  UNL1        0.0335
     18 C          64.6383   91.4491   13.9964 C.3     1  UNL1        0.0613
     19 C          65.9340   92.1935   13.8647 C.3     1  UNL1        0.1290
     20 C          67.2080   92.9313   13.5776 C.3     1  UNL1        0.0305
     21 C          68.0810   93.3885   14.7084 C.3     1  UNL1        0.0025
     22 C          67.6800   93.1079   16.1263 C.3     1  UNL1        0.0002
     23 C          66.4060   92.3702   16.4134 C.3     1  UNL1        0.0025
     24 C          65.5330   91.9130   15.2826 C.3     1  UNL1        0.0305
     25 O          66.2032   92.4005   12.4037 O.3     1  UNL1       -0.2256
     26 O          65.0740   91.7839   11.6323 O.3     1  UNL1       -0.2251
@<TRIPOS>BOND
     1    12    13    1
     2    13    14    1
     3    13     6    1
     4     6     7   ar
     5     7     8   ar
     6     8     9   ar
     7     9     5    1
     8     5     1    1
     9     1     2   am
    10     2     3    2
    11     2    15    1
    12    15    16    1
    13    16    17    1
    14    16    18    1
    15    18    19    1
    16    19    20    1
    17    20    21    1
    18    21    22    1
    19    22    23    1
    20    23    24    1
    21    19    25    1
    22    25    26    1
    23     9    10   ar
    24    10    11   ar
    25    11     6   ar
    26    26    16    1
    27    24    19    1
    28     1     4    1
@<TRIPOS>MOLECULE
*****
 26 28 0 0 0
SMALL
GASTEIGER

@<TRIPOS>ATOM
      1 N          63.8442   90.9442   12.9942 N.am    1  UNL1       -0.3004
      2 C          65.0261   90.6006   13.8517 C.2     1  UNL1        0.2252
      3 O          64.9469   89.4514   14.8123 O.2     1  UNL1       -0.2750
      4 H          63.8962   91.6985   12.3637 H       1  UNL1        0.1497
      5 C          62.5832   90.1385   13.0974 C.3     1  UNL1        0.1163
      6 C          60.6561   88.4895    9.3803 C.ar    1  UNL1        0.0479
      7 C          60.1339   89.7523    9.9988 C.ar    1  UNL1        0.0142
      8 C          60.7763   90.3020   11.2378 C.ar    1  UNL1       -0.0014
      9 C          61.9409   89.5888   11.8584 C.ar    1  UNL1       -0.0025
     10 C          62.4631   88.3260   11.2400 C.ar    1  UNL1       -0.0014
     11 C          61.8206   87.7763   10.0009 C.ar    1  UNL1        0.0142
     12 C          60.0248   86.4623    7.8830 C.3     1  UNL1        0.1122
     13 N          60.0137   87.9398    8.1412 N.pl3   1  UNL1       -0.3041
     14 C          59.3602   88.8678    7.1605 C.3     1  UNL1        0.1122
     15 C          66.2871   91.4064   13.7484 C.3     1  UNL1        0.1154
     16 C          66.2190   92.9043   13.7116 C.3     1  UNL1        0.1377
     17 C          65.8961   92.7687   15.1701 C.3     1  UNL1        0.0335
     18 C          66.5562   92.7269   12.2608 C.3     1  UNL1        0.0613
     19 C          66.6290   94.0869   11.6320 C.3     1  UNL1        0.1290
     20 C          66.6667   95.5051   11.1450 C.3     1  UNL1        0.0305
     21 C          66.9772   95.7960    9.7066 C.3     1  UNL1        0.0025
     22 C          67.2499   94.6687    8.7553 C.3     1  UNL1        0.0002
     23 C          67.2121   93.2506    9.2424 C.3     1  UNL1        0.0025
     24 C          66.9017   92.9597   10.6808 C.3     1  UNL1        0.0305
     25 O          66.3368   95.1049   12.6943 O.3     1  UNL1       -0.2256
     26 O          66.0834   94.3740   13.9796 O.3     1  UNL1       -0.2251
@<TRIPOS>BOND
     1    12    13    1
     2    13    14    1
     3    13     6    1
     4     6     7   ar
     5     7     8   ar
     6     8     9   ar
     7     9     5    1
     8     5     1    1
     9     1     2   am
    10     2     3    2
    11     2    15    1
    12    15    16    1
    13    16    17    1
    14    16    18    1
    15    18    19    1
    16    19    20    1
    17    20    21    1
    18    21    22    1
    19    22    23    1
    20    23    24    1
    21    19    25    1
    22    25    26    1
    23     9    10   ar
    24    10    11   ar
    25    11     6   ar
    26    26    16    1
    27    24    19    1
    28     1     4    1
@<TRIPOS>MOLECULE
*****
 26 28 0 0 0
SMALL
GASTEIGER

@<TRIPOS>ATOM
      1 N          63.4955   87.4237   12.4308 N.am    1  UNL1       -0.3004
      2 C          63.0500   88.8443   12.6144 C.2     1  UNL1        0.2252
      3 O          62.8531   89.3960   13.9952 O.2     1  UNL1       -0.2750
      4 H          63.6247   87.0616   11.5245 H       1  UNL1        0.1497
      5 C          63.7442   86.5550   13.6281 C.3     1  UNL1        0.1163
      6 C          62.2641   82.3057   13.6712 C.ar    1  UNL1        0.0479
      7 C          62.5971   82.9707   12.3685 C.ar    1  UNL1        0.0142
      8 C          63.0905   84.3871   12.3542 C.ar    1  UNL1       -0.0014
      9 C          63.2509   85.1386   13.6424 C.ar    1  UNL1       -0.0025
     10 C          62.9178   84.4736   14.9451 C.ar    1  UNL1       -0.0014
     11 C          62.4244   83.0570   14.9594 C.ar    1  UNL1        0.0142
     12 C          62.6584   79.7809   13.2021 C.3     1  UNL1        0.1122
     13 N          61.7707   80.8891   13.6855 N.pl3   1  UNL1       -0.3041
     14 C          60.3896   80.5811   14.1831 C.3     1  UNL1        0.1122
     15 C          62.8012   89.7130   11.4171 C.3     1  UNL1        0.1154
     16 C          61.5064   89.6045   10.6678 C.3     1  UNL1        0.1377
     17 C          61.1670   90.8783   11.3836 C.3     1  UNL1        0.0335
     18 C          62.1164   88.3534   10.1087 C.3     1  UNL1        0.0613
     19 C          61.1276   87.7379    9.1635 C.3     1  UNL1        0.1290
     20 C          60.0436   87.2424    8.2528 C.3     1  UNL1        0.0305
     21 C          60.2412   85.9782    7.4701 C.3     1  UNL1        0.0025
     22 C          61.5229   85.2094    7.5981 C.3     1  UNL1        0.0002
     23 C          62.6069   85.7049    8.5088 C.3     1  UNL1        0.0025
     24 C          62.4092   86.9691    9.2915 C.3     1  UNL1        0.0305
     25 O          59.9064   88.6086    9.1384 O.3     1  UNL1       -0.2256
     26 O          60.1405   89.7623   10.0682 O.3     1  UNL1       -0.2251
@<TRIPOS>BOND
     1    12    13    1
     2    13    14    1
     3    13     6    1
     4     6     7   ar
     5     7     8   ar
     6     8     9   ar
     7     9     5    1
     8     5     1    1
     9     1     2   am
    10     2     3    2
    11     2    15    1
    12    15    16    1
    13    16    17    1
    14    16    18    1
    15    18    19    1
    16    19    20    1
    17    20    21    1
    18    21    22    1
    19    22    23    1
    20    23    24    1
    21    19    25    1
    22    25    26    1
    23     9    10   ar
    24    10    11   ar
    25    11     6   ar
    26    26    16    1
    27    24    19    1
    28     1     4    1
