@<TRIPOS>MOLECULE
*****
 25 27 0 0 0
SMALL
GASTEIGER

@<TRIPOS>ATOM
      1 C          61.8422   88.1578   11.0728 C.3     1  UNL1        0.1236
      2 C          62.2777   86.8342   10.5173 C.ar    1  UNL1        0.0002
      3 C          62.6018   86.7030    9.0586 C.ar    1  UNL1       -0.0023
      4 C          63.0372   85.3794    8.5032 C.ar    1  UNL1       -0.0003
      5 C          63.1486   84.1870    9.4065 C.ar    1  UNL1       -0.0000
      6 C          62.8245   84.3182   10.8651 C.ar    1  UNL1       -0.0003
      7 C          62.3891   85.6418   11.4205 C.ar    1  UNL1       -0.0023
      8 C          62.8038   88.9904   11.8679 C.ar    1  UNL1        0.0002
      9 C          63.4201   88.4360   13.1180 C.ar    1  UNL1       -0.0023
     10 C          64.3816   89.2687   13.9131 C.ar    1  UNL1       -0.0003
     11 C          64.7268   90.6557   13.4581 C.ar    1  UNL1       -0.0000
     12 C          64.1105   91.2101   12.2079 C.ar    1  UNL1       -0.0003
     13 C          63.1490   90.3774   11.4129 C.ar    1  UNL1       -0.0023
     14 C          65.6883   91.4883   14.2532 C.ar    1  UNL1       -0.0000
     15 C          65.3260   91.9349   15.6385 C.ar    1  UNL1       -0.0000
     16 C          66.2876   92.7676   16.4336 C.ar    1  UNL1        0.0000
     17 C          67.6114   93.1536   15.8433 C.ar    1  UNL1        0.0000
     18 C          67.9737   92.7070   14.4580 C.ar    1  UNL1        0.0000
     19 C          67.0122   91.8744   13.6629 C.ar    1  UNL1       -0.0000
     20 N          60.4453   88.6487   10.8332 N.pl3   1  UNL1       -0.2634
     21 C          59.7713   89.5197   11.8516 C.2     1  UNL1        0.1596
     22 N          59.3651   90.9180   11.4915 N.2     1  UNL1       -0.2825
     23 H          59.5408   91.2641   10.5868 H       1  UNL1        0.1882
     24 C          59.9633   89.0376    8.3100 C.2     1  UNL1        0.0175
     25 C          59.7222   88.2686    9.5751 C.2     1  UNL1        0.0670
@<TRIPOS>BOND
     1    24    25    2
     2    25    20    1
     3    20    21    1
     4    21    22    2
     5    20     1    1
     6     1     2    1
     7     2     3   ar
     8     3     4   ar
     9     4     5   ar
    10     5     6   ar
    11     6     7   ar
    12     1     8    1
    13     8     9   ar
    14     9    10   ar
    15    10    11   ar
    16    11    14    1
    17    14    15   ar
    18    15    16   ar
    19    16    17   ar
    20    17    18   ar
    21    18    19   ar
    22    11    12   ar
    23    12    13   ar
    24     7     2   ar
    25    13     8   ar
    26    19    14   ar
    27    22    23    1
@<TRIPOS>MOLECULE
*****
 25 27 0 0 0
SMALL
GASTEIGER

@<TRIPOS>ATOM
      1 C          61.8728   88.2281   11.0331 C.3     1  UNL1        0.1236
      2 C          62.2907   86.8924   10.4933 C.ar    1  UNL1        0.0002
      3 C          62.4050   85.7138   11.4140 C.ar    1  UNL1       -0.0023
      4 C          62.8229   84.3782   10.8742 C.ar    1  UNL1       -0.0003
      5 C          63.1265   84.2212    9.4137 C.ar    1  UNL1       -0.0000
      6 C          63.0121   85.3998    8.4929 C.ar    1  UNL1       -0.0003
      7 C          62.5943   86.7354    9.0328 C.ar    1  UNL1       -0.0023
      8 C          62.8360   89.0445   11.8429 C.ar    1  UNL1        0.0002
      9 C          63.1995   90.4313   11.4017 C.ar    1  UNL1       -0.0023
     10 C          64.1628   91.2477   12.2115 C.ar    1  UNL1       -0.0003
     11 C          64.7624   90.6772   13.4625 C.ar    1  UNL1       -0.0000
     12 C          64.3989   89.2904   13.9037 C.ar    1  UNL1       -0.0003
     13 C          63.4357   88.4741   13.0939 C.ar    1  UNL1       -0.0023
     14 C          65.7256   91.4936   14.2723 C.ar    1  UNL1       -0.0000
     15 C          67.0713   91.8426   13.7090 C.ar    1  UNL1       -0.0000
     16 C          68.0345   92.6590   14.5189 C.ar    1  UNL1        0.0000
     17 C          67.6520   93.1264   15.8919 C.ar    1  UNL1        0.0000
     18 C          66.3063   92.7774   16.4551 C.ar    1  UNL1        0.0000
     19 C          65.3431   91.9610   15.6454 C.ar    1  UNL1       -0.0000
     20 N          60.4917   88.7474   10.7631 N.pl3   1  UNL1       -0.2634
     21 C          59.8850   88.5914    9.4001 C.2     1  UNL1        0.1596
     22 N          60.2248   89.5663    8.3119 N.2     1  UNL1       -0.2825
     23 H          60.8461   90.3084    8.4922 H       1  UNL1        0.1882
     24 C          59.1492   90.7933   11.6360 C.2     1  UNL1        0.0175
     25 C          59.7173   89.4226   11.8560 C.2     1  UNL1        0.0670
@<TRIPOS>BOND
     1    24    25    2
     2    25    20    1
     3    20    21    1
     4    21    22    2
     5    20     1    1
     6     1     2    1
     7     2     3   ar
     8     3     4   ar
     9     4     5   ar
    10     5     6   ar
    11     6     7   ar
    12     1     8    1
    13     8     9   ar
    14     9    10   ar
    15    10    11   ar
    16    11    14    1
    17    14    15   ar
    18    15    16   ar
    19    16    17   ar
    20    17    18   ar
    21    18    19   ar
    22    11    12   ar
    23    12    13   ar
    24     7     2   ar
    25    13     8   ar
    26    19    14   ar
    27    22    23    1
@<TRIPOS>MOLECULE
*****
 25 27 0 0 0
SMALL
GASTEIGER

@<TRIPOS>ATOM
      1 C          66.1603   93.0725   12.1965 C.3     1  UNL1        0.1236
      2 C          66.4571   94.2808   11.3586 C.ar    1  UNL1        0.0002
      3 C          67.1920   94.1306   10.0597 C.ar    1  UNL1       -0.0023
      4 C          67.4888   95.3389    9.2219 C.ar    1  UNL1       -0.0003
      5 C          67.0506   96.6973    9.6829 C.ar    1  UNL1       -0.0000
      6 C          66.3156   96.8475   10.9819 C.ar    1  UNL1       -0.0003
      7 C          66.0188   95.6392   11.8197 C.ar    1  UNL1       -0.0023
      8 C          65.0965   92.1057   11.7682 C.ar    1  UNL1        0.0002
      9 C          64.5999   91.0640   12.7264 C.ar    1  UNL1       -0.0023
     10 C          63.5360   90.0971   12.2980 C.ar    1  UNL1       -0.0003
     11 C          62.9688   90.1719   10.9114 C.ar    1  UNL1       -0.0000
     12 C          63.4655   91.2137    9.9532 C.ar    1  UNL1       -0.0003
     13 C          64.5292   92.1805   10.3815 C.ar    1  UNL1       -0.0023
     14 C          61.9051   89.2051   10.4831 C.ar    1  UNL1       -0.0000
     15 C          61.9014   87.8060   11.0238 C.ar    1  UNL1       -0.0000
     16 C          60.8375   86.8391   10.5954 C.ar    1  UNL1        0.0000
     17 C          59.7774   87.2714    9.6263 C.ar    1  UNL1        0.0000
     18 C          59.7811   88.6705    9.0856 C.ar    1  UNL1        0.0000
     19 C          60.8449   89.6374    9.5139 C.ar    1  UNL1       -0.0000
     20 N          66.9273   92.8311   13.4628 N.pl3   1  UNL1       -0.2634
     21 C          68.0994   91.8949   13.4628 C.2     1  UNL1        0.1596
     22 N          69.3969   92.3177   14.0854 N.2     1  UNL1       -0.2825
     23 H          69.4793   93.2096   14.4940 H       1  UNL1        0.1882
     24 C          66.3224   92.7348   15.9876 C.2     1  UNL1        0.0175
     25 C          66.5224   93.5259   14.7289 C.2     1  UNL1        0.0670
@<TRIPOS>BOND
     1    24    25    2
     2    25    20    1
     3    20    21    1
     4    21    22    2
     5    20     1    1
     6     1     2    1
     7     2     3   ar
     8     3     4   ar
     9     4     5   ar
    10     5     6   ar
    11     6     7   ar
    12     1     8    1
    13     8     9   ar
    14     9    10   ar
    15    10    11   ar
    16    11    14    1
    17    14    15   ar
    18    15    16   ar
    19    16    17   ar
    20    17    18   ar
    21    18    19   ar
    22    11    12   ar
    23    12    13   ar
    24     7     2   ar
    25    13     8   ar
    26    19    14   ar
    27    22    23    1
@<TRIPOS>MOLECULE
*****
 25 27 0 0 0
SMALL
GASTEIGER

@<TRIPOS>ATOM
      1 C          62.7779   85.3936   11.8224 C.3     1  UNL1        0.1236
      2 C          62.2779   85.5197   10.4138 C.ar    1  UNL1        0.0002
      3 C          60.9387   86.1399   10.1460 C.ar    1  UNL1       -0.0023
      4 C          60.4388   86.2659    8.7374 C.ar    1  UNL1       -0.0003
      5 C          61.2781   85.7717    7.5966 C.ar    1  UNL1       -0.0000
      6 C          62.6174   85.1515    7.8644 C.ar    1  UNL1       -0.0003
      7 C          63.1173   85.0255    9.2730 C.ar    1  UNL1       -0.0023
      8 C          63.2505   86.6098   12.5622 C.ar    1  UNL1        0.0002
      9 C          63.9783   86.4595   13.8652 C.ar    1  UNL1       -0.0023
     10 C          64.4509   87.6759   14.6050 C.ar    1  UNL1       -0.0003
     11 C          64.1956   89.0425   14.0418 C.ar    1  UNL1       -0.0000
     12 C          63.4678   89.1928   12.7389 C.ar    1  UNL1       -0.0003
     13 C          62.9953   87.9765   11.9991 C.ar    1  UNL1       -0.0023
     14 C          64.6682   90.2587   14.7816 C.ar    1  UNL1       -0.0000
     15 C          63.8774   90.7848   15.9426 C.ar    1  UNL1       -0.0000
     16 C          64.3500   92.0011   16.6824 C.ar    1  UNL1        0.0000
     17 C          65.6135   92.6913   16.2612 C.ar    1  UNL1        0.0000
     18 C          66.4043   92.1652   15.1002 C.ar    1  UNL1        0.0000
     19 C          65.9317   90.9490   14.3604 C.ar    1  UNL1       -0.0000
     20 N          62.8053   84.0512   12.4912 N.pl3   1  UNL1       -0.2634
     21 C          63.4552   82.8853   11.8067 C.2     1  UNL1        0.1596
     22 N          64.9425   82.8631   11.6133 N.2     1  UNL1       -0.2825
     23 H          65.4921   83.6136   11.9356 H       1  UNL1        0.1882
     24 C          62.3790   82.5931   14.5989 C.2     1  UNL1        0.0175
     25 C          62.1827   83.8746   13.8445 C.2     1  UNL1        0.0670
@<TRIPOS>BOND
     1    24    25    2
     2    25    20    1
     3    20    21    1
     4    21    22    2
     5    20     1    1
     6     1     2    1
     7     2     3   ar
     8     3     4   ar
     9     4     5   ar
    10     5     6   ar
    11     6     7   ar
    12     1     8    1
    13     8     9   ar
    14     9    10   ar
    15    10    11   ar
    16    11    14    1
    17    14    15   ar
    18    15    16   ar
    19    16    17   ar
    20    17    18   ar
    21    18    19   ar
    22    11    12   ar
    23    12    13   ar
    24     7     2   ar
    25    13     8   ar
    26    19    14   ar
    27    22    23    1
@<TRIPOS>MOLECULE
*****
 25 27 0 0 0
SMALL
GASTEIGER

@<TRIPOS>ATOM
      1 C          61.9962   89.4247   11.3249 C.3     1  UNL1        0.1236
      2 C          63.1136   90.3837   11.6113 C.ar    1  UNL1        0.0002
      3 C          63.6849   90.4780   12.9950 C.ar    1  UNL1       -0.0023
      4 C          64.8022   91.4369   13.2813 C.ar    1  UNL1       -0.0003
      5 C          65.3483   92.3015   12.1839 C.ar    1  UNL1       -0.0000
      6 C          64.7770   92.2072   10.8002 C.ar    1  UNL1       -0.0003
      7 C          63.6597   91.2483   10.5139 C.ar    1  UNL1       -0.0023
      8 C          62.1857   87.9573   11.5709 C.ar    1  UNL1        0.0002
      9 C          61.4096   86.9558   10.7681 C.ar    1  UNL1       -0.0023
     10 C          61.5991   85.4882   11.0141 C.ar    1  UNL1       -0.0003
     11 C          62.5648   85.0222   12.0631 C.ar    1  UNL1       -0.0000
     12 C          63.3409   86.0237   12.8659 C.ar    1  UNL1       -0.0003
     13 C          63.1514   87.4912   12.6199 C.ar    1  UNL1       -0.0023
     14 C          62.7543   83.5548   12.3091 C.ar    1  UNL1       -0.0000
     15 C          62.6620   83.0100   13.7036 C.ar    1  UNL1       -0.0000
     16 C          62.8516   81.5425   13.9496 C.ar    1  UNL1        0.0000
     17 C          63.1333   80.6198   12.8011 C.ar    1  UNL1        0.0000
     18 C          63.2255   81.1645   11.4066 C.ar    1  UNL1        0.0000
     19 C          63.0360   82.6320   11.1605 C.ar    1  UNL1       -0.0000
     20 N          60.6894   89.9333   10.7925 N.pl3   1  UNL1       -0.2634
     21 C          59.5507   90.2022   11.7313 C.2     1  UNL1        0.1596
     22 N          58.7511   91.4643   11.5983 N.2     1  UNL1       -0.2825
     23 H          58.9736   92.1162   10.8949 H       1  UNL1        0.1882
     24 C          59.9697   89.0893    8.4432 C.2     1  UNL1        0.0175
     25 C          60.5211   90.1730    9.3214 C.2     1  UNL1        0.0670
@<TRIPOS>BOND
     1    24    25    2
     2    25    20    1
     3    20    21    1
     4    21    22    2
     5    20     1    1
     6     1     2    1
     7     2     3   ar
     8     3     4   ar
     9     4     5   ar
    10     5     6   ar
    11     6     7   ar
    12     1     8    1
    13     8     9   ar
    14     9    10   ar
    15    10    11   ar
    16    11    14    1
    17    14    15   ar
    18    15    16   ar
    19    16    17   ar
    20    17    18   ar
    21    18    19   ar
    22    11    12   ar
    23    12    13   ar
    24     7     2   ar
    25    13     8   ar
    26    19    14   ar
    27    22    23    1
@<TRIPOS>MOLECULE
*****
 25 27 0 0 0
SMALL
GASTEIGER

@<TRIPOS>ATOM
      1 C          62.8671   85.3225   11.9800 C.3     1  UNL1        0.1236
      2 C          62.3898   85.4177   10.5611 C.ar    1  UNL1        0.0002
      3 C          63.2363   84.8768    9.4471 C.ar    1  UNL1       -0.0023
      4 C          62.7590   84.9720    8.0283 C.ar    1  UNL1       -0.0003
      5 C          61.4351   85.6081    7.7235 C.ar    1  UNL1       -0.0000
      6 C          60.5886   86.1489    8.8374 C.ar    1  UNL1       -0.0003
      7 C          61.0660   86.0537   10.2562 C.ar    1  UNL1       -0.0023
      8 C          63.3321   86.5540   12.6990 C.ar    1  UNL1        0.0002
      9 C          64.0575   86.4304   14.0061 C.ar    1  UNL1       -0.0023
     10 C          64.5224   87.6621   14.7252 C.ar    1  UNL1       -0.0003
     11 C          64.2620   89.0172   14.1372 C.ar    1  UNL1       -0.0000
     12 C          63.5366   89.1407   12.8301 C.ar    1  UNL1       -0.0003
     13 C          63.0716   87.9092   12.1110 C.ar    1  UNL1       -0.0023
     14 C          64.7269   90.2487   14.8563 C.ar    1  UNL1       -0.0000
     15 C          63.9077   90.8172   15.9768 C.ar    1  UNL1       -0.0000
     16 C          64.3727   92.0488   16.6959 C.ar    1  UNL1        0.0000
     17 C          65.6569   92.7118   16.2945 C.ar    1  UNL1        0.0000
     18 C          66.4762   92.1432   15.1740 C.ar    1  UNL1        0.0000
     19 C          66.0112   90.9117   14.4549 C.ar    1  UNL1       -0.0000
     20 N          62.8794   83.9958   12.6797 N.pl3   1  UNL1       -0.2634
     21 C          62.1181   83.8158   13.9596 C.2     1  UNL1        0.1596
     22 N          62.5352   82.7579   14.9379 N.2     1  UNL1       -0.2825
     23 H          63.3085   82.1818   14.7399 H       1  UNL1        0.1882
     24 C          62.9278   81.6537   11.5562 C.2     1  UNL1        0.0175
     25 C          63.6530   82.8490   12.0996 C.2     1  UNL1        0.0670
@<TRIPOS>BOND
     1    24    25    2
     2    25    20    1
     3    20    21    1
     4    21    22    2
     5    20     1    1
     6     1     2    1
     7     2     3   ar
     8     3     4   ar
     9     4     5   ar
    10     5     6   ar
    11     6     7   ar
    12     1     8    1
    13     8     9   ar
    14     9    10   ar
    15    10    11   ar
    16    11    14    1
    17    14    15   ar
    18    15    16   ar
    19    16    17   ar
    20    17    18   ar
    21    18    19   ar
    22    11    12   ar
    23    12    13   ar
    24     7     2   ar
    25    13     8   ar
    26    19    14   ar
    27    22    23    1
@<TRIPOS>MOLECULE
*****
 25 27 0 0 0
SMALL
GASTEIGER

@<TRIPOS>ATOM
      1 C          61.9789   89.4173   11.2735 C.3     1  UNL1        0.1236
      2 C          63.0912   90.3856   11.5480 C.ar    1  UNL1        0.0002
      3 C          63.6285   91.2439   10.4414 C.ar    1  UNL1       -0.0023
      4 C          64.7407   92.2121   10.7158 C.ar    1  UNL1       -0.0003
      5 C          65.3156   92.3221   12.0969 C.ar    1  UNL1       -0.0000
      6 C          64.7783   91.4639   13.2035 C.ar    1  UNL1       -0.0003
      7 C          63.6661   90.4956   12.9291 C.ar    1  UNL1       -0.0023
      8 C          62.1761   87.9540   11.5378 C.ar    1  UNL1        0.0002
      9 C          63.1293   87.5066   12.6061 C.ar    1  UNL1       -0.0023
     10 C          63.3265   86.0433   12.8704 C.ar    1  UNL1       -0.0003
     11 C          62.5705   85.0274   12.0664 C.ar    1  UNL1       -0.0000
     12 C          61.6173   85.4748   10.9981 C.ar    1  UNL1       -0.0003
     13 C          61.4201   86.9380   10.7338 C.ar    1  UNL1       -0.0023
     14 C          62.7678   83.5641   12.3307 C.ar    1  UNL1       -0.0000
     15 C          62.9738   82.6164   11.1865 C.ar    1  UNL1       -0.0000
     16 C          63.1710   81.1530   11.4508 C.ar    1  UNL1        0.0000
     17 C          63.1622   80.6375   12.8594 C.ar    1  UNL1        0.0000
     18 C          62.9562   81.5852   14.0036 C.ar    1  UNL1        0.0000
     19 C          62.7590   83.0485   13.7393 C.ar    1  UNL1       -0.0000
     20 N          60.6694   89.9123   10.7348 N.pl3   1  UNL1       -0.2634
     21 C          59.5239   90.1704   11.6682 C.2     1  UNL1        0.1596
     22 N          58.7663   91.4625   11.5865 N.2     1  UNL1       -0.2825
     23 H          59.0210   92.1411   10.9203 H       1  UNL1        0.1882
     24 C          59.9445   89.0684    8.3870 C.2     1  UNL1        0.0175
     25 C          60.5055   90.1493    9.2627 C.2     1  UNL1        0.0670
@<TRIPOS>BOND
     1    24    25    2
     2    25    20    1
     3    20    21    1
     4    21    22    2
     5    20     1    1
     6     1     2    1
     7     2     3   ar
     8     3     4   ar
     9     4     5   ar
    10     5     6   ar
    11     6     7   ar
    12     1     8    1
    13     8     9   ar
    14     9    10   ar
    15    10    11   ar
    16    11    14    1
    17    14    15   ar
    18    15    16   ar
    19    16    17   ar
    20    17    18   ar
    21    18    19   ar
    22    11    12   ar
    23    12    13   ar
    24     7     2   ar
    25    13     8   ar
    26    19    14   ar
    27    22    23    1
@<TRIPOS>MOLECULE
*****
 25 27 0 0 0
SMALL
GASTEIGER

@<TRIPOS>ATOM
      1 C          64.1022   89.8938   14.0355 C.3     1  UNL1        0.1236
      2 C          64.6022   90.8563   12.9992 C.ar    1  UNL1        0.0002
      3 C          63.8021   91.1002   11.7542 C.ar    1  UNL1       -0.0023
      4 C          64.3020   92.0626   10.7179 C.ar    1  UNL1       -0.0003
      5 C          65.6021   92.7811   10.9268 C.ar    1  UNL1       -0.0000
      6 C          66.4022   92.5371   12.1719 C.ar    1  UNL1       -0.0003
      7 C          65.9023   91.5747   13.2081 C.ar    1  UNL1       -0.0023
      8 C          63.9005   88.4499   13.6828 C.ar    1  UNL1        0.0002
      9 C          63.1257   88.0795   12.4530 C.ar    1  UNL1       -0.0023
     10 C          62.9240   86.6355   12.1003 C.ar    1  UNL1       -0.0003
     11 C          63.4970   85.5621   12.9775 C.ar    1  UNL1       -0.0000
     12 C          64.2717   85.9326   14.2073 C.ar    1  UNL1       -0.0003
     13 C          64.4735   87.3764   14.5600 C.ar    1  UNL1       -0.0023
     14 C          63.2952   84.1182   12.6248 C.ar    1  UNL1       -0.0000
     15 C          63.7602   83.5985   11.2968 C.ar    1  UNL1       -0.0000
     16 C          63.5584   82.1545   10.9441 C.ar    1  UNL1        0.0000
     17 C          62.8917   81.2303   11.9194 C.ar    1  UNL1        0.0000
     18 C          62.4267   81.7501   13.2475 C.ar    1  UNL1        0.0000
     19 C          62.6284   83.1939   13.6001 C.ar    1  UNL1       -0.0000
     20 N          63.8041   90.3754   15.4245 N.pl3   1  UNL1       -0.2634
     21 C          64.5831   91.5180   16.0055 C.2     1  UNL1        0.1596
     22 N          63.8862   92.5568   16.8334 N.2     1  UNL1       -0.2825
     23 H          62.9175   92.4886   16.9954 H       1  UNL1        0.1882
     24 C          63.0725   88.5963   17.1709 C.2     1  UNL1        0.0175
     25 C          62.7270   89.7143   16.2324 C.2     1  UNL1        0.0670
@<TRIPOS>BOND
     1    24    25    2
     2    25    20    1
     3    20    21    1
     4    21    22    2
     5    20     1    1
     6     1     2    1
     7     2     3   ar
     8     3     4   ar
     9     4     5   ar
    10     5     6   ar
    11     6     7   ar
    12     1     8    1
    13     8     9   ar
    14     9    10   ar
    15    10    11   ar
    16    11    14    1
    17    14    15   ar
    18    15    16   ar
    19    16    17   ar
    20    17    18   ar
    21    18    19   ar
    22    11    12   ar
    23    12    13   ar
    24     7     2   ar
    25    13     8   ar
    26    19    14   ar
    27    22    23    1
@<TRIPOS>MOLECULE
*****
 25 27 0 0 0
SMALL
GASTEIGER

@<TRIPOS>ATOM
      1 C          62.2047   86.4806   10.9895 C.3     1  UNL1        0.1236
      2 C          62.6628   85.0538   11.0577 C.ar    1  UNL1        0.0002
      3 C          62.2924   84.2027   12.2359 C.ar    1  UNL1       -0.0023
      4 C          62.7505   82.7760   12.3040 C.ar    1  UNL1       -0.0003
      5 C          63.5790   82.2005   11.1938 C.ar    1  UNL1       -0.0000
      6 C          63.9493   83.0517   10.0156 C.ar    1  UNL1       -0.0003
      7 C          63.4913   84.4783    9.9475 C.ar    1  UNL1       -0.0023
      8 C          62.8407   87.5154   11.8697 C.ar    1  UNL1        0.0002
      9 C          62.7997   88.9623   11.4765 C.ar    1  UNL1       -0.0023
     10 C          63.4357   89.9971   12.3568 C.ar    1  UNL1       -0.0003
     11 C          64.1127   89.5849   13.6302 C.ar    1  UNL1       -0.0000
     12 C          64.1537   88.1379   14.0235 C.ar    1  UNL1       -0.0003
     13 C          63.5177   87.1032   13.1433 C.ar    1  UNL1       -0.0023
     14 C          64.7487   90.6196   14.5104 C.ar    1  UNL1       -0.0000
     15 C          66.0724   91.2150   14.1321 C.ar    1  UNL1       -0.0000
     16 C          66.7084   92.2498   15.0124 C.ar    1  UNL1        0.0000
     17 C          66.0206   92.6891   16.2709 C.ar    1  UNL1        0.0000
     18 C          64.6969   92.0937   16.6492 C.ar    1  UNL1        0.0000
     19 C          64.0609   91.0589   15.7690 C.ar    1  UNL1       -0.0000
     20 N          61.1106   86.8725   10.0412 N.pl3   1  UNL1       -0.2634
     21 C          61.0523   86.2648    8.6710 C.2     1  UNL1        0.1596
     22 N          59.7284   86.0652    7.9948 N.2     1  UNL1       -0.2825
     23 H          58.8977   86.3331    8.4503 H       1  UNL1        0.1882
     24 C          59.9502   89.1765    9.7328 C.2     1  UNL1        0.0175
     25 C          60.0749   87.8722   10.4630 C.2     1  UNL1        0.0670
@<TRIPOS>BOND
     1    24    25    2
     2    25    20    1
     3    20    21    1
     4    21    22    2
     5    20     1    1
     6     1     2    1
     7     2     3   ar
     8     3     4   ar
     9     4     5   ar
    10     5     6   ar
    11     6     7   ar
    12     1     8    1
    13     8     9   ar
    14     9    10   ar
    15    10    11   ar
    16    11    14    1
    17    14    15   ar
    18    15    16   ar
    19    16    17   ar
    20    17    18   ar
    21    18    19   ar
    22    11    12   ar
    23    12    13   ar
    24     7     2   ar
    25    13     8   ar
    26    19    14   ar
    27    22    23    1
