@<TRIPOS>MOLECULE
*****
 41 46 0 0 0
SMALL
GASTEIGER

@<TRIPOS>ATOM
      1 C          62.2983   85.8895   10.9796 C.ar    1  UNL1        0.0569
      2 C          62.5153   84.4072   10.9056 C.ar    1  UNL1        0.1237
      3 N          63.3564   84.0026   12.0798 N.ar    1  UNL1       -0.1598
      4 N          63.6593   85.2350   12.8796 N.ar    1  UNL1       -0.1821
      5 C          64.4461   85.4459   14.1391 C.ar    1  UNL1        0.2217
      6 N          64.5789   86.8230   14.7187 N.ar    1  UNL1       -0.1808
      7 C          63.9250   87.9892   14.0388 C.ar    1  UNL1        0.2244
      8 N          63.1382   87.7782   12.7792 N.ar    1  UNL1       -0.1942
      9 C          63.0053   86.4012   12.1996 C.ar    1  UNL1        0.1709
     10 C          59.9891   90.3683    9.7115 C.3     1  UNL1        0.0312
     11 C          60.3577   88.9548    9.3707 C.ar    1  UNL1       -0.0175
     12 C          61.1437   88.1289   10.3455 C.ar    1  UNL1       -0.0040
     13 C          61.5123   86.7154   10.0048 C.ar    1  UNL1        0.0042
     14 C          61.0949   86.1277    8.6894 C.ar    1  UNL1        0.0003
     15 C          60.3089   86.9536    7.7146 C.ar    1  UNL1        0.0042
     16 C          59.9403   88.3671    8.0553 C.ar    1  UNL1        0.0494
     17 C          59.1543   89.1929    7.0805 C.2     1  UNL1        0.2455
     18 O          57.6888   88.9358    6.8903 O.2     1  UNL1       -0.2702
     19 N          59.8337   90.2759    6.2959 N.am    1  UNL1       -0.3025
     20 H          60.7956   90.4446    6.4208 H       1  UNL1        0.1497
     21 C          59.0477   91.1017    5.3211 C.3     1  UNL1        0.0720
     22 C          57.7298   91.6023    4.8090 C.3     1  UNL1        0.0213
     23 C          59.0044   92.0315    4.1449 C.3     1  UNL1        0.0213
     24 N          65.1000   84.2797   14.8191 N.pl3   1  UNL1       -0.3029
     25 H          66.0802   84.1882   14.8054 H       1  UNL1        0.1496
     26 C          64.2605   83.2528   15.5198 C.3     1  UNL1        0.0897
     27 C          63.4353   82.2873   14.7218 C.3     1  UNL1        0.0246
     28 C          64.1037   81.3242   13.7862 C.3     1  UNL1        0.0338
     29 C          63.2784   80.3587   12.9882 C.3     1  UNL1        0.1422
     30 O          61.7848   80.3563   13.1259 O.3     1  UNL1       -0.3538
     31 C          61.1163   81.3195   14.0616 C.3     1  UNL1        0.1422
     32 C          61.9416   82.2850   14.8596 C.3     1  UNL1        0.0338
     33 N          64.0578   89.3663   14.6184 N.pl3   1  UNL1       -0.2824
     34 H          63.7250   89.5526   15.5260 H       1  UNL1        0.1551
     35 C          64.6978   90.4596   13.8151 C.ar    1  UNL1        0.0527
     36 C          65.9448   91.1262   14.3154 C.ar    1  UNL1        0.0148
     37 C          66.5848   92.2195   13.5122 C.ar    1  UNL1        0.0036
     38 C          65.9777   92.6461   12.2086 C.ar    1  UNL1        0.0297
     39 C          64.7306   91.9795   11.7083 C.ar    1  UNL1        0.1414
     40 F          64.1234   92.4062   10.4047 F       1  UNL1       -0.2041
     41 C          64.0906   90.8862   12.5116 C.ar    1  UNL1        0.0443
@<TRIPOS>BOND
     1    10    11    1
     2    11    12   ar
     3    12    13   ar
     4    13     1    1
     5     1     2   ar
     6     2     3   ar
     7     3     4   ar
     8     4     5   ar
     9     5    24    1
    10    24    26    1
    11    26    27    1
    12    27    28    1
    13    28    29    1
    14    29    30    1
    15    30    31    1
    16    31    32    1
    17     5     6   ar
    18     6     7   ar
    19     7    33    1
    20    33    35    1
    21    35    36   ar
    22    36    37   ar
    23    37    38   ar
    24    38    39   ar
    25    39    40    1
    26    39    41   ar
    27     7     8   ar
    28     8     9   ar
    29    13    14   ar
    30    14    15   ar
    31    15    16   ar
    32    16    17    1
    33    17    18    2
    34    17    19   am
    35    19    21    1
    36    21    22    1
    37    22    23    1
    38    16    11   ar
    39    23    21    1
    40     9     1   ar
    41     9     4   ar
    42    32    27    1
    43    41    35   ar
    44    24    25    1
    45    33    34    1
    46    19    20    1
@<TRIPOS>MOLECULE
*****
 41 46 0 0 0
SMALL
GASTEIGER

@<TRIPOS>ATOM
      1 C          64.0886   89.0477   14.1847 C.ar    1  UNL1        0.0569
      2 C          64.1096   88.7815   15.6607 C.ar    1  UNL1        0.1237
      3 N          63.5572   87.4062   15.8915 N.ar    1  UNL1       -0.1598
      4 N          63.1947   86.8224   14.5582 N.ar    1  UNL1       -0.1821
      5 C          62.6080   85.4981   14.1683 C.ar    1  UNL1        0.2217
      6 N          62.3497   85.1884   12.7235 N.ar    1  UNL1       -0.1808
      7 C          62.6782   86.2029   11.6686 C.ar    1  UNL1        0.2244
      8 N          63.2649   87.5273   12.0585 N.ar    1  UNL1       -0.1942
      9 C          63.5231   87.8370   13.5033 C.ar    1  UNL1        0.1709
     10 C          67.2476   93.1703   14.0259 C.3     1  UNL1        0.0312
     11 C          66.1312   92.3655   13.4294 C.ar    1  UNL1       -0.0175
     12 C          65.6681   91.1090   14.1053 C.ar    1  UNL1       -0.0040
     13 C          64.5517   90.3042   13.5088 C.ar    1  UNL1        0.0042
     14 C          63.8984   90.7558   12.2363 C.ar    1  UNL1        0.0003
     15 C          64.3615   92.0122   11.5604 C.ar    1  UNL1        0.0042
     16 C          65.4779   92.8171   12.1569 C.ar    1  UNL1        0.0494
     17 C          65.9410   94.0735   11.4809 C.2     1  UNL1        0.2455
     18 O          66.0555   95.3478   12.2638 O.2     1  UNL1       -0.2702
     19 N          66.2896   94.0556   10.0221 N.am    1  UNL1       -0.3025
     20 H          66.2144   93.2192    9.5083 H       1  UNL1        0.1497
     21 C          66.7526   95.3121    9.3461 C.3     1  UNL1        0.0720
     22 C          67.1407   96.7591    9.4190 C.3     1  UNL1        0.0213
     23 C          67.1667   96.0411    8.1024 C.3     1  UNL1        0.0213
     24 N          62.2796   84.4836   15.2232 N.pl3   1  UNL1       -0.3029
     25 H          61.5479   84.6541   15.8593 H       1  UNL1        0.1496
     26 C          63.0662   83.2091   15.3088 C.3     1  UNL1        0.0897
     27 C          62.9744   82.1957   14.2067 C.3     1  UNL1        0.0246
     28 C          63.8417   82.3300   12.9903 C.3     1  UNL1        0.0338
     29 C          63.7500   81.3165   11.8882 C.3     1  UNL1        0.1422
     30 O          62.7909   80.1689   12.0026 O.3     1  UNL1       -0.3538
     31 C          61.9236   80.0346   13.2191 C.3     1  UNL1        0.1422
     32 C          62.0153   81.0480   14.3211 C.3     1  UNL1        0.0338
     33 N          62.4199   85.8932   10.2239 N.pl3   1  UNL1       -0.2824
     34 H          62.9195   85.1714    9.7782 H       1  UNL1        0.1551
     35 C          61.4004   86.6833    9.4580 C.ar    1  UNL1        0.0527
     36 C          60.6132   86.0288    8.3618 C.ar    1  UNL1        0.0148
     37 C          59.5938   86.8189    7.5959 C.ar    1  UNL1        0.0036
     38 C          59.3615   88.2635    7.9264 C.ar    1  UNL1        0.0297
     39 C          60.1488   88.9180    9.0227 C.ar    1  UNL1        0.1414
     40 F          59.9166   90.3626    9.3532 F       1  UNL1       -0.2041
     41 C          61.1682   88.1279    9.7885 C.ar    1  UNL1        0.0443
@<TRIPOS>BOND
     1    10    11    1
     2    11    12   ar
     3    12    13   ar
     4    13     1    1
     5     1     2   ar
     6     2     3   ar
     7     3     4   ar
     8     4     5   ar
     9     5    24    1
    10    24    26    1
    11    26    27    1
    12    27    28    1
    13    28    29    1
    14    29    30    1
    15    30    31    1
    16    31    32    1
    17     5     6   ar
    18     6     7   ar
    19     7    33    1
    20    33    35    1
    21    35    36   ar
    22    36    37   ar
    23    37    38   ar
    24    38    39   ar
    25    39    40    1
    26    39    41   ar
    27     7     8   ar
    28     8     9   ar
    29    13    14   ar
    30    14    15   ar
    31    15    16   ar
    32    16    17    1
    33    17    18    2
    34    17    19   am
    35    19    21    1
    36    21    22    1
    37    22    23    1
    38    16    11   ar
    39    23    21    1
    40     9     1   ar
    41     9     4   ar
    42    32    27    1
    43    41    35   ar
    44    24    25    1
    45    33    34    1
    46    19    20    1
@<TRIPOS>MOLECULE
*****
 41 46 0 0 0
SMALL
GASTEIGER

@<TRIPOS>ATOM
      1 C          62.3972   90.1367   11.0799 C.ar    1  UNL1        0.0569
      2 C          61.4207   90.7100   10.0961 C.ar    1  UNL1        0.1237
      3 N          60.5430   89.5946    9.6108 N.ar    1  UNL1       -0.1598
      4 N          60.9770   88.3321   10.2946 N.ar    1  UNL1       -0.1821
      5 C          60.4768   86.9206   10.2078 C.ar    1  UNL1        0.2217
      6 N          61.1225   85.8442   11.0291 N.ar    1  UNL1       -0.1808
      7 C          62.2685   86.1793   11.9371 C.ar    1  UNL1        0.2244
      8 N          62.7687   87.5908   12.0238 N.ar    1  UNL1       -0.1942
      9 C          62.1230   88.6671   11.2026 C.ar    1  UNL1        0.1709
     10 C          66.2360   93.6386   11.0736 C.3     1  UNL1        0.0312
     11 C          65.3806   92.6502   11.8093 C.ar    1  UNL1       -0.0175
     12 C          64.3166   91.8877   11.0768 C.ar    1  UNL1       -0.0040
     13 C          63.4611   90.8993   11.8125 C.ar    1  UNL1        0.0042
     14 C          63.6695   90.6734   13.2806 C.ar    1  UNL1        0.0003
     15 C          64.7335   91.4360   14.0131 C.ar    1  UNL1        0.0042
     16 C          65.5890   92.4244   13.2775 C.ar    1  UNL1        0.0494
     17 C          66.6530   93.1869   14.0100 C.2     1  UNL1        0.2455
     18 O          66.6603   94.6864   13.9741 O.2     1  UNL1       -0.2702
     19 N          67.7095   92.4499   14.7784 N.am    1  UNL1       -0.3025
     20 H          67.7047   91.4657   14.8020 H       1  UNL1        0.1497
     21 C          68.7735   93.2124   15.5110 C.3     1  UNL1        0.0720
     22 C          69.2922   94.5016   16.0756 C.3     1  UNL1        0.0213
     23 C          70.0975   93.2439   16.2152 C.3     1  UNL1        0.0213
     24 N          59.3308   86.5855    9.2998 N.pl3   1  UNL1       -0.3029
     25 H          58.4279   86.4610    9.6721 H       1  UNL1        0.1496
     26 C          59.5605   86.4402    7.8246 C.3     1  UNL1        0.0897
     27 C          60.7529   85.6812    7.3225 C.3     1  UNL1        0.0246
     28 C          60.6420   84.8456    6.0818 C.3     1  UNL1        0.0338
     29 C          61.8345   84.0867    5.5796 C.3     1  UNL1        0.1422
     30 O          63.1377   84.1634    6.3182 O.3     1  UNL1       -0.3538
     31 C          63.2487   84.9991    7.5589 C.3     1  UNL1        0.1422
     32 C          62.0562   85.7580    8.0611 C.3     1  UNL1        0.0338
     33 N          62.9142   85.1029   12.7583 N.pl3   1  UNL1       -0.2824
     34 H          63.2693   85.3121   13.6524 H       1  UNL1        0.1551
     35 C          63.0189   83.7078   12.2174 C.ar    1  UNL1        0.0527
     36 C          63.6748   83.4651   10.8904 C.ar    1  UNL1        0.0148
     37 C          63.7795   82.0700   10.3495 C.ar    1  UNL1        0.0036
     38 C          63.2282   80.9175   11.1354 C.ar    1  UNL1        0.0297
     39 C          62.5723   81.1601   12.4624 C.ar    1  UNL1        0.1414
     40 F          62.0210   80.0076   13.2484 F       1  UNL1       -0.2041
     41 C          62.4676   82.5553   13.0033 C.ar    1  UNL1        0.0443
@<TRIPOS>BOND
     1    10    11    1
     2    11    12   ar
     3    12    13   ar
     4    13     1    1
     5     1     2   ar
     6     2     3   ar
     7     3     4   ar
     8     4     5   ar
     9     5    24    1
    10    24    26    1
    11    26    27    1
    12    27    28    1
    13    28    29    1
    14    29    30    1
    15    30    31    1
    16    31    32    1
    17     5     6   ar
    18     6     7   ar
    19     7    33    1
    20    33    35    1
    21    35    36   ar
    22    36    37   ar
    23    37    38   ar
    24    38    39   ar
    25    39    40    1
    26    39    41   ar
    27     7     8   ar
    28     8     9   ar
    29    13    14   ar
    30    14    15   ar
    31    15    16   ar
    32    16    17    1
    33    17    18    2
    34    17    19   am
    35    19    21    1
    36    21    22    1
    37    22    23    1
    38    16    11   ar
    39    23    21    1
    40     9     1   ar
    41     9     4   ar
    42    32    27    1
    43    41    35   ar
    44    24    25    1
    45    33    34    1
    46    19    20    1
@<TRIPOS>MOLECULE
*****
 41 46 0 0 0
SMALL
GASTEIGER

@<TRIPOS>ATOM
      1 C          61.6722   89.9358   10.6218 C.ar    1  UNL1        0.0569
      2 C          60.4837   90.7209   10.1514 C.ar    1  UNL1        0.1237
      3 N          59.7541   89.8932    9.1353 N.ar    1  UNL1       -0.1598
      4 N          60.4915   88.5965    8.9777 N.ar    1  UNL1       -0.1821
      5 C          60.2368   87.3953    8.1163 C.ar    1  UNL1        0.2217
      6 N          61.1675   86.2203    8.1736 N.ar    1  UNL1       -0.1808
      7 C          62.3529   86.2466    9.0923 C.ar    1  UNL1        0.2244
      8 N          62.6077   87.4479    9.9537 N.ar    1  UNL1       -0.1942
      9 C          61.6770   88.6229    9.8964 C.ar    1  UNL1        0.1709
     10 C          63.7231   89.5835   15.3830 C.3     1  UNL1        0.0312
     11 C          63.7045   90.2086   14.0197 C.ar    1  UNL1       -0.0175
     12 C          62.6977   89.7597   13.0024 C.ar    1  UNL1       -0.0040
     13 C          62.6790   90.3848   11.6390 C.ar    1  UNL1        0.0042
     14 C          63.6672   91.4588   11.2928 C.ar    1  UNL1        0.0003
     15 C          64.6741   91.9077   12.3100 C.ar    1  UNL1        0.0042
     16 C          64.6927   91.2827   13.6735 C.ar    1  UNL1        0.0494
     17 C          65.6996   91.7316   14.6906 C.2     1  UNL1        0.2455
     18 O          65.2422   92.2271   16.0305 O.2     1  UNL1       -0.2702
     19 N          67.1637   91.6852   14.3679 N.am    1  UNL1       -0.3025
     20 H          67.4638   91.3600   13.4885 H       1  UNL1        0.1497
     21 C          68.1706   92.1341   15.3851 C.3     1  UNL1        0.0720
     22 C          69.0986   93.1850   15.9183 C.3     1  UNL1        0.0213
     23 C          68.9865   91.8608   16.6137 C.3     1  UNL1        0.0213
     24 N          59.0513   87.3689    7.1976 N.pl3   1  UNL1       -0.3029
     25 H          58.8376   86.5510    6.6931 H       1  UNL1        0.1496
     26 C          58.1915   88.5889    7.0476 C.3     1  UNL1        0.0897
     27 C          58.6263   89.7068    6.1469 C.3     1  UNL1        0.0246
     28 C          60.0766   89.8703    5.8010 C.3     1  UNL1        0.0338
     29 C          60.5114   90.9882    4.9003 C.3     1  UNL1        0.1422
     30 O          59.4959   91.9425    4.3455 O.3     1  UNL1       -0.3538
     31 C          58.0455   91.7790    4.6914 C.3     1  UNL1        0.1422
     32 C          57.6106   90.6612    5.5921 C.3     1  UNL1        0.0338
     33 N          63.2836   85.0717    9.1496 N.pl3   1  UNL1       -0.2824
     34 H          63.8156   84.8260    8.3585 H       1  UNL1        0.1551
     35 C          63.4037   84.2709   10.4123 C.ar    1  UNL1        0.0527
     36 C          64.2266   83.0169   10.4298 C.ar    1  UNL1        0.0148
     37 C          64.3467   82.2162   11.6925 C.ar    1  UNL1        0.0036
     38 C          63.6440   82.6694   12.9377 C.ar    1  UNL1        0.0297
     39 C          62.8211   83.9234   12.9203 C.ar    1  UNL1        0.1414
     40 F          62.1183   84.3767   14.1655 F       1  UNL1       -0.2041
     41 C          62.7010   84.7241   11.6576 C.ar    1  UNL1        0.0443
@<TRIPOS>BOND
     1    10    11    1
     2    11    12   ar
     3    12    13   ar
     4    13     1    1
     5     1     2   ar
     6     2     3   ar
     7     3     4   ar
     8     4     5   ar
     9     5    24    1
    10    24    26    1
    11    26    27    1
    12    27    28    1
    13    28    29    1
    14    29    30    1
    15    30    31    1
    16    31    32    1
    17     5     6   ar
    18     6     7   ar
    19     7    33    1
    20    33    35    1
    21    35    36   ar
    22    36    37   ar
    23    37    38   ar
    24    38    39   ar
    25    39    40    1
    26    39    41   ar
    27     7     8   ar
    28     8     9   ar
    29    13    14   ar
    30    14    15   ar
    31    15    16   ar
    32    16    17    1
    33    17    18    2
    34    17    19   am
    35    19    21    1
    36    21    22    1
    37    22    23    1
    38    16    11   ar
    39    23    21    1
    40     9     1   ar
    41     9     4   ar
    42    32    27    1
    43    41    35   ar
    44    24    25    1
    45    33    34    1
    46    19    20    1
@<TRIPOS>MOLECULE
*****
 41 46 0 0 0
SMALL
GASTEIGER

@<TRIPOS>ATOM
      1 C          63.9619   87.5743   14.0207 C.ar    1  UNL1        0.0569
      2 C          64.9762   88.1916   14.9373 C.ar    1  UNL1        0.1237
      3 N          65.1822   89.6144   14.5096 N.ar    1  UNL1       -0.1598
      4 N          64.2952   89.8766   13.3286 N.ar    1  UNL1       -0.1821
      5 C          64.0769   91.1005   12.4894 C.ar    1  UNL1        0.2217
      6 N          63.1044   91.0635   11.3479 N.ar    1  UNL1       -0.1808
      7 C          62.3502   89.8026   11.0458 C.ar    1  UNL1        0.2244
      8 N          62.5685   88.5786   11.8851 N.ar    1  UNL1       -0.1942
      9 C          63.5410   88.6156   13.0265 C.ar    1  UNL1        0.1709
     10 C          62.7400   83.1165   11.6469 C.3     1  UNL1        0.0312
     11 C          62.8461   83.9344   12.8998 C.ar    1  UNL1       -0.0175
     12 C          63.3509   85.3454   12.8339 C.ar    1  UNL1       -0.0040
     13 C          63.4570   86.1633   14.0867 C.ar    1  UNL1        0.0042
     14 C          63.0583   85.5703   15.4056 C.ar    1  UNL1        0.0003
     15 C          62.5535   84.1593   15.4715 C.ar    1  UNL1        0.0042
     16 C          62.4474   83.3414   14.2186 C.ar    1  UNL1        0.0494
     17 C          61.9425   81.9304   14.2846 C.2     1  UNL1        0.2455
     18 O          62.9072   80.7967   14.4688 O.2     1  UNL1       -0.2702
     19 N          60.4731   81.6533   14.1665 N.am    1  UNL1       -0.3025
     20 H          59.8400   82.3975   14.0456 H       1  UNL1        0.1497
     21 C          59.9682   80.2424   14.2325 C.3     1  UNL1        0.0720
     22 C          58.8745   79.2677   14.5546 C.3     1  UNL1        0.0213
     23 C          60.1876   78.7731   14.0246 C.3     1  UNL1        0.0213
     24 N          64.8311   92.3614   12.7915 N.pl3   1  UNL1       -0.3029
     25 H          64.3559   93.1451   13.1508 H       1  UNL1        0.1496
     26 C          66.3095   92.4281   12.5463 C.3     1  UNL1        0.0897
     27 C          66.8292   92.8942   11.2186 C.3     1  UNL1        0.0246
     28 C          67.8070   92.0491   10.4574 C.3     1  UNL1        0.0338
     29 C          68.3267   92.5152    9.1297 C.3     1  UNL1        0.1422
     30 O          67.8686   93.8264    8.5633 O.3     1  UNL1       -0.3538
     31 C          66.8907   94.6716    9.3246 C.3     1  UNL1        0.1422
     32 C          66.3710   94.2055   10.6523 C.3     1  UNL1        0.0338
     33 N          61.3777   89.7655    9.9044 N.pl3   1  UNL1       -0.2824
     34 H          60.9388   90.5942    9.6046 H       1  UNL1        0.1551
     35 C          61.0739   88.4660    9.2197 C.ar    1  UNL1        0.0527
     36 C          59.7855   88.2960    8.4708 C.ar    1  UNL1        0.0148
     37 C          59.4817   86.9964    7.7861 C.ar    1  UNL1        0.0036
     38 C          60.4664   85.8668    7.8504 C.ar    1  UNL1        0.0297
     39 C          61.7549   86.0367    8.5993 C.ar    1  UNL1        0.1414
     40 F          62.7397   84.9070    8.6635 F       1  UNL1       -0.2041
     41 C          62.0586   87.3363    9.2839 C.ar    1  UNL1        0.0443
@<TRIPOS>BOND
     1    10    11    1
     2    11    12   ar
     3    12    13   ar
     4    13     1    1
     5     1     2   ar
     6     2     3   ar
     7     3     4   ar
     8     4     5   ar
     9     5    24    1
    10    24    26    1
    11    26    27    1
    12    27    28    1
    13    28    29    1
    14    29    30    1
    15    30    31    1
    16    31    32    1
    17     5     6   ar
    18     6     7   ar
    19     7    33    1
    20    33    35    1
    21    35    36   ar
    22    36    37   ar
    23    37    38   ar
    24    38    39   ar
    25    39    40    1
    26    39    41   ar
    27     7     8   ar
    28     8     9   ar
    29    13    14   ar
    30    14    15   ar
    31    15    16   ar
    32    16    17    1
    33    17    18    2
    34    17    19   am
    35    19    21    1
    36    21    22    1
    37    22    23    1
    38    16    11   ar
    39    23    21    1
    40     9     1   ar
    41     9     4   ar
    42    32    27    1
    43    41    35   ar
    44    24    25    1
    45    33    34    1
    46    19    20    1
@<TRIPOS>MOLECULE
*****
 41 46 0 0 0
SMALL
GASTEIGER

@<TRIPOS>ATOM
      1 C          63.8086   86.6462   13.7791 C.ar    1  UNL1        0.0569
      2 C          64.5614   87.1253   14.9848 C.ar    1  UNL1        0.1237
      3 N          64.5377   88.6251   14.9801 N.ar    1  UNL1       -0.1598
      4 N          63.7703   89.0729   13.7716 N.ar    1  UNL1       -0.1821
      5 C          63.4237   90.4363   13.2511 C.ar    1  UNL1        0.2217
      6 N          62.6264   90.5767   11.9882 N.ar    1  UNL1       -0.1808
      7 C          62.1757   89.3536   11.2460 C.ar    1  UNL1        0.2244
      8 N          62.5224   87.9901   11.7665 N.ar    1  UNL1       -0.1942
      9 C          63.3197   87.8498   13.0293 C.ar    1  UNL1        0.1709
     10 C          63.9645   82.8735   10.2095 C.3     1  UNL1        0.0312
     11 C          63.6620   83.3283   11.6065 C.ar    1  UNL1       -0.0175
     12 C          63.8865   84.7598   11.9944 C.ar    1  UNL1       -0.0040
     13 C          63.5840   85.2147   13.3913 C.ar    1  UNL1        0.0042
     14 C          63.0570   84.2381   14.4005 C.ar    1  UNL1        0.0003
     15 C          62.8325   82.8065   14.0126 C.ar    1  UNL1        0.0042
     16 C          63.1350   82.3517   12.6156 C.ar    1  UNL1        0.0494
     17 C          62.9104   80.9201   12.2278 C.2     1  UNL1        0.2455
     18 O          62.3748   79.9457   13.2345 O.2     1  UNL1       -0.2702
     19 N          63.2216   80.4632   10.8334 N.am    1  UNL1       -0.3025
     20 H          63.5732   81.1028   10.1727 H       1  UNL1        0.1497
     21 C          62.9971   79.0317   10.4456 C.3     1  UNL1        0.0720
     22 C          62.4120   77.6824   10.7405 C.3     1  UNL1        0.0213
     23 C          63.1932   77.9016    9.4790 C.3     1  UNL1        0.0213
     24 N          63.8744   91.6594   13.9933 N.pl3   1  UNL1       -0.3029
     25 H          63.5430   92.5472   13.7264 H       1  UNL1        0.1496
     26 C          64.8300   91.5298   15.1424 C.3     1  UNL1        0.0897
     27 C          66.2578   91.9608   14.9826 C.3     1  UNL1        0.0246
     28 C          66.9404   92.7177   16.0831 C.3     1  UNL1        0.0338
     29 C          68.3682   93.1487   15.9233 C.3     1  UNL1        0.1422
     30 O          69.1135   92.8228   14.6631 O.3     1  UNL1       -0.3538
     31 C          68.4310   92.0658   13.5625 C.3     1  UNL1        0.1422
     32 C          67.0031   91.6348   13.7223 C.3     1  UNL1        0.0338
     33 N          61.3785   89.4939    9.9832 N.pl3   1  UNL1       -0.2824
     34 H          61.0946   90.3854    9.6768 H       1  UNL1        0.1551
     35 C          61.0138   88.2760    9.1872 C.ar    1  UNL1        0.0527
     36 C          59.6595   88.1740    8.5504 C.ar    1  UNL1        0.0148
     37 C          59.2948   86.9560    7.7545 C.ar    1  UNL1        0.0036
     38 C          60.2843   85.8400    7.5953 C.ar    1  UNL1        0.0297
     39 C          61.6386   85.9420    8.2321 C.ar    1  UNL1        0.1414
     40 F          62.6282   84.8260    8.0730 F       1  UNL1       -0.2041
     41 C          62.0033   87.1600    9.0281 C.ar    1  UNL1        0.0443
@<TRIPOS>BOND
     1    10    11    1
     2    11    12   ar
     3    12    13   ar
     4    13     1    1
     5     1     2   ar
     6     2     3   ar
     7     3     4   ar
     8     4     5   ar
     9     5    24    1
    10    24    26    1
    11    26    27    1
    12    27    28    1
    13    28    29    1
    14    29    30    1
    15    30    31    1
    16    31    32    1
    17     5     6   ar
    18     6     7   ar
    19     7    33    1
    20    33    35    1
    21    35    36   ar
    22    36    37   ar
    23    37    38   ar
    24    38    39   ar
    25    39    40    1
    26    39    41   ar
    27     7     8   ar
    28     8     9   ar
    29    13    14   ar
    30    14    15   ar
    31    15    16   ar
    32    16    17    1
    33    17    18    2
    34    17    19   am
    35    19    21    1
    36    21    22    1
    37    22    23    1
    38    16    11   ar
    39    23    21    1
    40     9     1   ar
    41     9     4   ar
    42    32    27    1
    43    41    35   ar
    44    24    25    1
    45    33    34    1
    46    19    20    1
@<TRIPOS>MOLECULE
*****
 41 46 0 0 0
SMALL
GASTEIGER

@<TRIPOS>ATOM
      1 C          63.9056   86.6152   13.8530 C.ar    1  UNL1        0.0569
      2 C          64.6562   87.0930   15.0606 C.ar    1  UNL1        0.1237
      3 N          64.7038   88.5915   15.0137 N.ar    1  UNL1       -0.1598
      4 N          63.9827   89.0398   13.7772 N.ar    1  UNL1       -0.1821
      5 C          63.7116   90.4024   13.2118 C.ar    1  UNL1        0.2217
      6 N          62.9470   90.5437   11.9289 N.ar    1  UNL1       -0.1808
      7 C          62.4537   89.3222   11.2116 C.ar    1  UNL1        0.2244
      8 N          62.7248   87.9595   11.7770 N.ar    1  UNL1       -0.1942
      9 C          63.4893   87.8184   13.0598 C.ar    1  UNL1        0.1709
     10 C          63.6165   82.8261   10.3091 C.3     1  UNL1        0.0312
     11 C          63.4766   83.2906   11.7284 C.ar    1  UNL1       -0.0175
     12 C          63.7610   84.7206   12.0811 C.ar    1  UNL1       -0.0040
     13 C          63.6211   85.1852   13.5004 C.ar    1  UNL1        0.0042
     14 C          63.1968   84.2199   14.5672 C.ar    1  UNL1        0.0003
     15 C          62.9123   82.7899   14.2145 C.ar    1  UNL1        0.0042
     16 C          63.0522   82.3253   12.7952 C.ar    1  UNL1        0.0494
     17 C          62.7678   80.8953   12.4427 C.2     1  UNL1        0.2455
     18 O          62.0724   80.0040   13.4285 O.2     1  UNL1       -0.2702
     19 N          63.1787   80.3568   11.1043 N.am    1  UNL1       -0.3025
     20 H          63.6350   80.9419   10.4573 H       1  UNL1        0.1497
     21 C          62.8942   78.9268   10.7518 C.3     1  UNL1        0.0720
     22 C          62.6756   77.8626    9.7176 C.3     1  UNL1        0.0213
     23 C          62.6202   77.5143   11.1754 C.3     1  UNL1        0.0213
     24 N          64.2049   91.6239   13.9292 N.pl3   1  UNL1       -0.3029
     25 H          63.6047   92.1143   14.5363 H       1  UNL1        0.1496
     26 C          65.6128   92.0982   13.7216 C.3     1  UNL1        0.0897
     27 C          65.9479   92.9578   12.5389 C.3     1  UNL1        0.0246
     28 C          66.1458   94.4340   12.7167 C.3     1  UNL1        0.0338
     29 C          66.4809   95.2936   11.5339 C.3     1  UNL1        0.1422
     30 O          66.6181   94.6770   10.1735 O.3     1  UNL1       -0.3538
     31 C          66.4201   93.2007    9.9956 C.3     1  UNL1        0.1422
     32 C          66.0850   92.3411   11.1783 C.3     1  UNL1        0.0338
     33 N          61.6892   89.4634    9.9288 N.pl3   1  UNL1       -0.2824
     34 H          61.4790   90.3585    9.5769 H       1  UNL1        0.1551
     35 C          61.2448   88.2407    9.1820 C.ar    1  UNL1        0.0527
     36 C          62.2113   87.1206    8.9344 C.ar    1  UNL1        0.0148
     37 C          61.7670   85.8979    8.1877 C.ar    1  UNL1        0.0036
     38 C          60.3562   85.7953    7.6885 C.ar    1  UNL1        0.0297
     39 C          59.3898   86.9154    7.9362 C.ar    1  UNL1        0.1414
     40 F          57.9789   86.8129    7.4370 F       1  UNL1       -0.2041
     41 C          59.8341   88.1381    8.6829 C.ar    1  UNL1        0.0443
@<TRIPOS>BOND
     1    10    11    1
     2    11    12   ar
     3    12    13   ar
     4    13     1    1
     5     1     2   ar
     6     2     3   ar
     7     3     4   ar
     8     4     5   ar
     9     5    24    1
    10    24    26    1
    11    26    27    1
    12    27    28    1
    13    28    29    1
    14    29    30    1
    15    30    31    1
    16    31    32    1
    17     5     6   ar
    18     6     7   ar
    19     7    33    1
    20    33    35    1
    21    35    36   ar
    22    36    37   ar
    23    37    38   ar
    24    38    39   ar
    25    39    40    1
    26    39    41   ar
    27     7     8   ar
    28     8     9   ar
    29    13    14   ar
    30    14    15   ar
    31    15    16   ar
    32    16    17    1
    33    17    18    2
    34    17    19   am
    35    19    21    1
    36    21    22    1
    37    22    23    1
    38    16    11   ar
    39    23    21    1
    40     9     1   ar
    41     9     4   ar
    42    32    27    1
    43    41    35   ar
    44    24    25    1
    45    33    34    1
    46    19    20    1
@<TRIPOS>MOLECULE
*****
 41 46 0 0 0
SMALL
GASTEIGER

@<TRIPOS>ATOM
      1 C          59.0875   90.4988    5.7556 C.ar    1  UNL1        0.0569
      2 C          57.6556   90.8576    5.4897 C.ar    1  UNL1        0.1237
      3 N          57.6199   91.7730    4.3020 N.ar    1  UNL1       -0.1598
      4 N          59.0299   91.9801    3.8338 N.ar    1  UNL1       -0.1821
      5 C          59.6050   92.7839    2.7056 C.ar    1  UNL1        0.2217
      6 N          61.0872   92.8003    2.4756 N.ar    1  UNL1       -0.1808
      7 C          61.9943   92.0127    3.3740 C.ar    1  UNL1        0.2244
      8 N          61.4191   91.2089    4.5023 N.ar    1  UNL1       -0.1942
      9 C          59.9369   91.1925    4.7322 C.ar    1  UNL1        0.1709
     10 C          61.6966   89.8509   10.2023 C.3     1  UNL1        0.0312
     11 C          60.8877   89.2795    9.0757 C.ar    1  UNL1       -0.0175
     12 C          60.3920   90.1748    7.9789 C.ar    1  UNL1       -0.0040
     13 C          59.5832   89.6035    6.8523 C.ar    1  UNL1        0.0042
     14 C          59.2699   88.1369    6.8224 C.ar    1  UNL1        0.0003
     15 C          59.7656   87.2416    7.9191 C.ar    1  UNL1        0.0042
     16 C          60.5745   87.8129    9.0458 C.ar    1  UNL1        0.0494
     17 C          61.0701   86.9176   10.1425 C.2     1  UNL1        0.2455
     18 O          60.5645   87.0972   11.5432 O.2     1  UNL1       -0.2702
     19 N          62.0713   85.8428    9.8384 N.am    1  UNL1       -0.3025
     20 H          62.4031   85.7250    8.9190 H       1  UNL1        0.1497
     21 C          62.5669   84.9475   10.9351 C.3     1  UNL1        0.0720
     22 C          62.7687   84.6719   12.3957 C.3     1  UNL1        0.0213
     23 C          63.2237   83.6724   11.3741 C.3     1  UNL1        0.0213
     24 N          58.6980   93.5714    1.8072 N.pl3   1  UNL1       -0.3029
     25 H          57.9047   94.0201    2.1795 H       1  UNL1        0.1496
     26 C          58.9996   93.6754    0.3415 C.3     1  UNL1        0.0897
     27 C          57.8780   93.7300   -0.6530 C.3     1  UNL1        0.0246
     28 C          57.3664   95.0553   -1.1345 C.3     1  UNL1        0.0338
     29 C          56.2448   95.1099   -2.1290 C.3     1  UNL1        0.1422
     30 O          55.6348   93.8393   -2.6420 O.3     1  UNL1       -0.3538
     31 C          56.1464   92.5139   -2.1606 C.3     1  UNL1        0.1422
     32 C          57.2680   92.4592   -1.1661 C.3     1  UNL1        0.0338
     33 N          63.4764   92.0291    3.1441 N.pl3   1  UNL1       -0.2824
     34 H          64.0462   91.3406    3.5572 H       1  UNL1        0.1551
     35 C          64.0905   93.0943    2.2849 C.ar    1  UNL1        0.0527
     36 C          64.3970   92.8115    0.8440 C.ar    1  UNL1        0.0148
     37 C          65.0111   93.8767   -0.0152 C.ar    1  UNL1        0.0036
     38 C          65.3185   95.2247    0.5664 C.ar    1  UNL1        0.0297
     39 C          65.0119   95.5075    2.0072 C.ar    1  UNL1        0.1414
     40 F          65.3194   96.8556    2.5888 F       1  UNL1       -0.2041
     41 C          64.3979   94.4423    2.8664 C.ar    1  UNL1        0.0443
@<TRIPOS>BOND
     1    10    11    1
     2    11    12   ar
     3    12    13   ar
     4    13     1    1
     5     1     2   ar
     6     2     3   ar
     7     3     4   ar
     8     4     5   ar
     9     5    24    1
    10    24    26    1
    11    26    27    1
    12    27    28    1
    13    28    29    1
    14    29    30    1
    15    30    31    1
    16    31    32    1
    17     5     6   ar
    18     6     7   ar
    19     7    33    1
    20    33    35    1
    21    35    36   ar
    22    36    37   ar
    23    37    38   ar
    24    38    39   ar
    25    39    40    1
    26    39    41   ar
    27     7     8   ar
    28     8     9   ar
    29    13    14   ar
    30    14    15   ar
    31    15    16   ar
    32    16    17    1
    33    17    18    2
    34    17    19   am
    35    19    21    1
    36    21    22    1
    37    22    23    1
    38    16    11   ar
    39    23    21    1
    40     9     1   ar
    41     9     4   ar
    42    32    27    1
    43    41    35   ar
    44    24    25    1
    45    33    34    1
    46    19    20    1
@<TRIPOS>MOLECULE
*****
 41 46 0 0 0
SMALL
GASTEIGER

@<TRIPOS>ATOM
      1 C          59.0177   90.4955    5.7509 C.ar    1  UNL1        0.0569
      2 C          57.5802   90.8107    5.4610 C.ar    1  UNL1        0.1237
      3 N          57.5354   91.7060    4.2584 N.ar    1  UNL1       -0.1598
      4 N          58.9452   91.9441    3.8050 N.ar    1  UNL1       -0.1821
      5 C          59.5131   92.7456    2.6713 C.ar    1  UNL1        0.2217
      6 N          60.9973   92.7989    2.4601 N.ar    1  UNL1       -0.1808
      7 C          61.9135   92.0508    3.3826 C.ar    1  UNL1        0.2244
      8 N          61.3455   91.2493    4.5163 N.ar    1  UNL1       -0.1942
      9 C          59.8614   91.1960    4.7274 C.ar    1  UNL1        0.1709
     10 C          61.7971   89.9400   10.1060 C.3     1  UNL1        0.0312
     11 C          60.9127   89.3538    9.0458 C.ar    1  UNL1       -0.0175
     12 C          60.4074   90.2177    7.9285 C.ar    1  UNL1       -0.0040
     13 C          59.5230   89.6315    6.8682 C.ar    1  UNL1        0.0042
     14 C          59.1438   88.1814    6.9252 C.ar    1  UNL1        0.0003
     15 C          59.6492   87.3174    8.0425 C.ar    1  UNL1        0.0042
     16 C          60.5336   87.9036    9.1027 C.ar    1  UNL1        0.0494
     17 C          61.0388   87.0396   10.2200 C.2     1  UNL1        0.2455
     18 O          60.5726   87.2819   11.6250 O.2     1  UNL1       -0.2702
     19 N          62.0102   85.9335    9.9322 N.am    1  UNL1       -0.3025
     20 H          62.3161   85.7745    9.0101 H       1  UNL1        0.1497
     21 C          62.5154   85.0695   11.0495 C.3     1  UNL1        0.0720
     22 C          63.0368   84.9286   12.4489 C.3     1  UNL1        0.0213
     23 C          62.8693   83.7138   11.5852 C.3     1  UNL1        0.0213
     24 N          58.5970   93.4937    1.7489 N.pl3   1  UNL1       -0.3029
     25 H          57.9163   94.1018    2.1177 H       1  UNL1        0.1496
     26 C          58.7179   93.3151    0.2644 C.3     1  UNL1        0.0897
     27 C          59.7881   94.0430   -0.4938 C.3     1  UNL1        0.0246
     28 C          60.2979   93.4881   -1.7907 C.3     1  UNL1        0.0338
     29 C          61.3681   94.2160   -2.5489 C.3     1  UNL1        0.1422
     30 O          61.9285   95.4989   -2.0102 O.3     1  UNL1       -0.3538
     31 C          61.4186   96.0539   -0.7132 C.3     1  UNL1        0.1422
     32 C          60.3484   95.3260    0.0450 C.3     1  UNL1        0.0338
     33 N          63.3975   92.1041    3.1714 N.pl3   1  UNL1       -0.2824
     34 H          63.9834   91.4594    3.6300 H       1  UNL1        0.1551
     35 C          63.9889   93.1396    2.2616 C.ar    1  UNL1        0.0527
     36 C          64.6122   94.3763    2.8378 C.ar    1  UNL1        0.0148
     37 C          65.2036   95.4119    1.9279 C.ar    1  UNL1        0.0036
     38 C          65.1717   95.2108    0.4419 C.ar    1  UNL1        0.0297
     39 C          64.5485   93.9741   -0.1344 C.ar    1  UNL1        0.1414
     40 F          64.5166   93.7729   -1.6205 F       1  UNL1       -0.2041
     41 C          63.9571   92.9385    0.7755 C.ar    1  UNL1        0.0443
@<TRIPOS>BOND
     1    10    11    1
     2    11    12   ar
     3    12    13   ar
     4    13     1    1
     5     1     2   ar
     6     2     3   ar
     7     3     4   ar
     8     4     5   ar
     9     5    24    1
    10    24    26    1
    11    26    27    1
    12    27    28    1
    13    28    29    1
    14    29    30    1
    15    30    31    1
    16    31    32    1
    17     5     6   ar
    18     6     7   ar
    19     7    33    1
    20    33    35    1
    21    35    36   ar
    22    36    37   ar
    23    37    38   ar
    24    38    39   ar
    25    39    40    1
    26    39    41   ar
    27     7     8   ar
    28     8     9   ar
    29    13    14   ar
    30    14    15   ar
    31    15    16   ar
    32    16    17    1
    33    17    18    2
    34    17    19   am
    35    19    21    1
    36    21    22    1
    37    22    23    1
    38    16    11   ar
    39    23    21    1
    40     9     1   ar
    41     9     4   ar
    42    32    27    1
    43    41    35   ar
    44    24    25    1
    45    33    34    1
    46    19    20    1
