@<TRIPOS>MOLECULE
*****
 45 50 0 0 0
SMALL
GASTEIGER

@<TRIPOS>ATOM
      1 N          59.8009   95.7416   -3.0799 N.pl3   1  UNL1       -0.3041
      2 C          58.8085   96.6209   -2.3783 C.3     1  UNL1        0.1122
      3 C          57.4008   96.7177   -2.8874 C.3     1  UNL1        0.1122
      4 N          56.9855   95.9353   -4.0980 N.pl3   1  UNL1       -0.3041
      5 C          57.9780   95.0561   -4.7995 C.3     1  UNL1        0.1122
      6 C          59.3856   94.9593   -4.2904 C.3     1  UNL1        0.1122
      7 C          64.0238   95.4512   -1.5527 C.ar    1  UNL1        0.1388
      8 C          63.3735   94.2597   -2.1909 C.ar    1  UNL1        0.0382
      9 C          61.9659   94.3564   -2.7000 C.ar    1  UNL1        0.0176
     10 C          61.2085   95.6448   -2.5708 C.ar    1  UNL1        0.0481
     11 C          61.8589   96.8364   -1.9327 C.ar    1  UNL1        0.0176
     12 C          63.2665   96.7396   -1.4236 C.ar    1  UNL1        0.0382
     13 O          65.4315   95.3545   -1.0436 O.3     1  UNL1       -0.4727
     14 C          65.6870   95.1341    0.4179 C.3     1  UNL1        0.2374
     15 C          61.8721   92.3456    2.8904 C.3     1  UNL1        0.0663
     16 C          62.7154   93.1803    1.9726 C.3     1  UNL1        0.2082
     17 O          63.7833   92.9496    3.0004 O.3     1  UNL1       -0.3281
     18 C          65.0265   93.6534    2.5430 C.3     1  UNL1        0.1783
     19 C          64.7269   94.3191    1.2327 C.3     1  UNL1        0.1909
     20 O          63.2985   94.0267    0.8801 O.3     1  UNL1       -0.3269
     21 C          61.4711   93.2364    1.1368 C.ar    1  UNL1        0.0390
     22 C          61.0890   92.0653    0.2809 C.ar    1  UNL1        0.0021
     23 C          59.8447   92.1215   -0.5549 C.ar    1  UNL1        0.0113
     24 C          58.9826   93.3488   -0.5348 C.ar    1  UNL1        0.0585
     25 CL         57.7382   93.4050   -1.3707 Cl      1  UNL1       -0.0822
     26 C          59.3646   94.5199    0.3210 C.ar    1  UNL1        0.0226
     27 C          60.6089   94.4637    1.1568 C.ar    1  UNL1        0.0590
     28 CL         60.9910   95.6349    2.0127 Cl      1  UNL1       -0.0824
     29 C          55.5779   96.0321   -4.6071 C.ar    1  UNL1        0.0480
     30 C          55.2734   95.7003   -6.0379 C.ar    1  UNL1        0.0160
     31 C          53.8657   95.7971   -6.5470 C.ar    1  UNL1        0.0190
     32 C          52.7627   96.2256   -5.6253 C.ar    1  UNL1        0.0699
     33 C          53.0672   96.5574   -4.1944 C.ar    1  UNL1        0.0190
     34 C          54.4748   96.4606   -3.6853 C.ar    1  UNL1        0.0160
     35 N          51.3550   96.3224   -6.1343 N.ar    1  UNL1       -0.2398
     36 C          50.9361   96.8541   -7.4729 C.ar    1  UNL1        0.2073
     37 N          49.4413   96.7648   -7.5601 N.ar    1  UNL1       -0.1442
     38 N          48.9363   96.1779   -6.2753 N.ar    1  UNL1       -0.2001
     39 C          50.1190   95.9045   -5.3942 C.ar    1  UNL1        0.3523
     40 O          50.0738   95.3165   -4.0150 O.2     1  UNL1       -0.2444
     41 C          47.5007   95.9113   -5.9320 C.3     1  UNL1        0.1382
     42 C          46.5361   95.5035   -7.0058 C.3     1  UNL1        0.0682
     43 C          45.9377   94.1280   -6.9934 C.2     1  UNL1        0.0524
     44 O          44.4477   93.9581   -7.0218 O.co2   1  UNL1       -0.5491
     45 O          46.8295   92.9225   -6.9527 O.co2   1  UNL1       -0.5491
@<TRIPOS>UNITY_ATOM_ATTR
44 1
charge -1
@<TRIPOS>BOND
     1    15    16    1
     2    16    21    1
     3    21    22   ar
     4    22    23   ar
     5    23    24   ar
     6    24    25    1
     7    24    26   ar
     8    26    27   ar
     9    27    28    1
    10    16    17    1
    11    17    18    1
    12    18    19    1
    13    19    14    1
    14    14    13    1
    15    13     7    1
    16     7     8   ar
    17     8     9   ar
    18     9    10   ar
    19    10     1    1
    20     1     2    1
    21     2     3    1
    22     3     4    1
    23     4    29    1
    24    29    30   ar
    25    30    31   ar
    26    31    32   ar
    27    32    35    1
    28    35    36   ar
    29    36    37   ar
    30    37    38   ar
    31    38    41    1
    32    41    42    1
    33    42    43    1
    34    43    44   ar
    35    43    45   ar
    36    38    39   ar
    37    39    40    2
    38    32    33   ar
    39    33    34   ar
    40     4     5    1
    41     5     6    1
    42    10    11   ar
    43    11    12   ar
    44    19    20    1
    45    20    16    1
    46    27    21   ar
    47    12     7   ar
    48     6     1    1
    49    34    29   ar
    50    39    35   ar
@<TRIPOS>MOLECULE
*****
 45 50 0 0 0
SMALL
GASTEIGER

@<TRIPOS>ATOM
      1 N          59.7867   90.6081    5.7026 N.pl3   1  UNL1       -0.3041
      2 C          58.5120   91.1532    5.1298 C.3     1  UNL1        0.1122
      3 C          58.5417   91.9545    3.8621 C.3     1  UNL1        0.1122
      4 N          59.8461   92.2108    3.1672 N.pl3   1  UNL1       -0.3041
      5 C          61.1208   91.6657    3.7400 C.3     1  UNL1        0.1122
      6 C          61.0911   90.8644    5.0077 C.3     1  UNL1        0.1122
      7 C          59.6975   88.2043    9.5057 C.ar    1  UNL1        0.1388
      8 C          60.4052   89.5264    9.4705 C.ar    1  UNL1        0.0382
      9 C          60.4350   90.3277    8.2029 C.ar    1  UNL1        0.0176
     10 C          59.7570   89.8069    6.9703 C.ar    1  UNL1        0.0481
     11 C          59.0492   88.4848    7.0055 C.ar    1  UNL1        0.0176
     12 C          59.0195   87.6835    8.2732 C.ar    1  UNL1        0.0382
     13 O          59.6677   87.4030   10.7734 O.3     1  UNL1       -0.4727
     14 C          60.9497   87.0475   11.4662 C.3     1  UNL1        0.2374
     15 C          64.1094   83.0735    9.8335 C.3     1  UNL1        0.0663
     16 C          63.1792   84.0042   10.5536 C.3     1  UNL1        0.2082
     17 O          63.3685   84.8744    9.3466 O.3     1  UNL1       -0.3281
     18 C          62.5564   86.1204    9.5416 C.3     1  UNL1        0.1783
     19 C          61.8652   86.0202   10.8690 C.3     1  UNL1        0.1909
     20 O          62.2501   84.7122   11.4945 O.3     1  UNL1       -0.3269
     21 C          63.1845   82.9393   11.6100 C.ar    1  UNL1        0.0390
     22 C          62.7006   81.5573   11.2843 C.ar    1  UNL1        0.0021
     23 C          62.7058   80.4925   12.3408 C.ar    1  UNL1        0.0113
     24 C          63.1949   80.8096   13.7229 C.ar    1  UNL1        0.0585
     25 CL         63.2001   79.7447   14.7793 Cl      1  UNL1       -0.0822
     26 C          63.6788   82.1915   14.0486 C.ar    1  UNL1        0.0226
     27 C          63.6735   83.2564   12.9921 C.ar    1  UNL1        0.0590
     28 CL         64.1574   84.6384   13.3178 Cl      1  UNL1       -0.0824
     29 C          59.8759   93.0120    1.8995 C.ar    1  UNL1        0.0480
     30 C          59.5573   92.3548    0.5892 C.ar    1  UNL1        0.0160
     31 C          59.5871   93.1561   -0.6784 C.ar    1  UNL1        0.0190
     32 C          59.9354   94.6145   -0.6359 C.ar    1  UNL1        0.0699
     33 C          60.2539   95.2717    0.6744 C.ar    1  UNL1        0.0190
     34 C          60.2242   94.4704    1.9421 C.ar    1  UNL1        0.0160
     35 N          59.9651   95.4158   -1.9035 N.ar    1  UNL1       -0.2398
     36 C          61.1252   96.2194   -2.4117 C.ar    1  UNL1        0.2073
     37 N          60.7170   96.8544   -3.7079 N.ar    1  UNL1       -0.1442
     38 N          59.3046   96.4433   -4.0009 N.ar    1  UNL1       -0.2001
     39 C          58.8399   95.5542   -2.8858 C.ar    1  UNL1        0.3523
     40 O          57.4873   94.9155   -2.7728 O.2     1  UNL1       -0.2444
     41 C          58.4984   96.8499   -5.1988 C.3     1  UNL1        0.1382
     42 C          58.3573   95.9124   -6.3611 C.3     1  UNL1        0.0682
     43 C          57.4361   94.7325   -6.2655 C.2     1  UNL1        0.0524
     44 O          57.9288   93.3645   -6.6337 O.co2   1  UNL1       -0.5491
     45 O          56.0220   94.9208   -5.8016 O.co2   1  UNL1       -0.5491
@<TRIPOS>UNITY_ATOM_ATTR
44 1
charge -1
@<TRIPOS>BOND
     1    15    16    1
     2    16    21    1
     3    21    22   ar
     4    22    23   ar
     5    23    24   ar
     6    24    25    1
     7    24    26   ar
     8    26    27   ar
     9    27    28    1
    10    16    17    1
    11    17    18    1
    12    18    19    1
    13    19    14    1
    14    14    13    1
    15    13     7    1
    16     7     8   ar
    17     8     9   ar
    18     9    10   ar
    19    10     1    1
    20     1     2    1
    21     2     3    1
    22     3     4    1
    23     4    29    1
    24    29    30   ar
    25    30    31   ar
    26    31    32   ar
    27    32    35    1
    28    35    36   ar
    29    36    37   ar
    30    37    38   ar
    31    38    41    1
    32    41    42    1
    33    42    43    1
    34    43    44   ar
    35    43    45   ar
    36    38    39   ar
    37    39    40    2
    38    32    33   ar
    39    33    34   ar
    40     4     5    1
    41     5     6    1
    42    10    11   ar
    43    11    12   ar
    44    19    20    1
    45    20    16    1
    46    27    21   ar
    47    12     7   ar
    48     6     1    1
    49    34    29   ar
    50    39    35   ar
@<TRIPOS>MOLECULE
*****
 45 50 0 0 0
SMALL
GASTEIGER

@<TRIPOS>ATOM
      1 N          60.1204   90.7694    5.4383 N.pl3   1  UNL1       -0.3041
      2 C          58.9584   91.5321    4.8744 C.3     1  UNL1        0.1122
      3 C          59.1194   92.3129    3.6038 C.3     1  UNL1        0.1122
      4 N          60.4424   92.3310    2.8970 N.pl3   1  UNL1       -0.3041
      5 C          61.6044   91.5683    3.4610 C.3     1  UNL1        0.1122
      6 C          61.4434   90.7876    4.7317 C.3     1  UNL1        0.1122
      7 C          59.6374   88.4272    9.2502 C.ar    1  UNL1        0.1388
      8 C          60.3721   89.7349    9.2614 C.ar    1  UNL1        0.0382
      9 C          60.5331   90.5157    7.9909 C.ar    1  UNL1        0.0176
     10 C          59.9594   89.9887    6.7089 C.ar    1  UNL1        0.0481
     11 C          59.2248   88.6809    6.6977 C.ar    1  UNL1        0.0176
     12 C          59.0638   87.9002    7.9683 C.ar    1  UNL1        0.0382
     13 O          59.4764   87.6464   10.5208 O.3     1  UNL1       -0.4727
     14 C          60.6858   87.2374   11.3082 C.3     1  UNL1        0.2374
     15 C          64.0715   83.4348    9.7209 C.3     1  UNL1        0.0663
     16 C          63.0780   84.3115   10.4239 C.3     1  UNL1        0.2082
     17 O          63.2659   85.2085    9.2365 O.3     1  UNL1       -0.3281
     18 C          62.3927   86.4137    9.4232 C.3     1  UNL1        0.1783
     19 C          61.6650   86.2616   10.7260 C.3     1  UNL1        0.1909
     20 O          62.0886   84.9623   11.3445 O.3     1  UNL1       -0.3269
     21 C          63.0978   83.2312   11.4644 C.ar    1  UNL1        0.0390
     22 C          62.7806   81.8158   11.0821 C.ar    1  UNL1        0.0021
     23 C          62.8004   80.7356   12.1226 C.ar    1  UNL1        0.0113
     24 C          63.1374   81.0706   13.5453 C.ar    1  UNL1        0.0585
     25 CL         63.1572   79.9903   14.5858 Cl      1  UNL1       -0.0822
     26 C          63.4546   82.4860   13.9276 C.ar    1  UNL1        0.0226
     27 C          63.4348   83.5662   12.8871 C.ar    1  UNL1        0.0590
     28 CL         63.7520   84.9817   13.2694 Cl      1  UNL1       -0.0824
     29 C          60.6034   93.1118    1.6264 C.ar    1  UNL1        0.0480
     30 C          60.9429   92.4031    0.3487 C.ar    1  UNL1        0.0160
     31 C          61.1040   93.1839   -0.9220 C.ar    1  UNL1        0.0190
     32 C          60.9255   94.6732   -0.9148 C.ar    1  UNL1        0.0699
     33 C          60.5860   95.3818    0.3630 C.ar    1  UNL1        0.0190
     34 C          60.4249   94.6011    1.6336 C.ar    1  UNL1        0.0160
     35 N          61.0865   95.4539   -2.1854 N.ar    1  UNL1       -0.2398
     36 C          60.0121   96.2345   -2.8829 C.ar    1  UNL1        0.2073
     37 N          60.6118   96.8542   -4.1102 N.ar    1  UNL1       -0.1442
     38 N          62.0569   96.4567   -4.1713 N.ar    1  UNL1       -0.2001
     39 C          62.3503   95.5913   -2.9818 C.ar    1  UNL1        0.3523
     40 O          63.6748   94.9720   -2.6473 O.2     1  UNL1       -0.2444
     41 C          63.0366   96.8547   -5.2352 C.3     1  UNL1        0.1382
     42 C          63.5938   95.8195   -6.1667 C.3     1  UNL1        0.0682
     43 C          65.0272   95.3947   -6.0448 C.2     1  UNL1        0.0524
     44 O          65.5126   94.1756   -6.7715 O.co2   1  UNL1       -0.5491
     45 O          65.9753   96.1891   -5.1961 O.co2   1  UNL1       -0.5491
@<TRIPOS>UNITY_ATOM_ATTR
44 1
charge -1
@<TRIPOS>BOND
     1    15    16    1
     2    16    21    1
     3    21    22   ar
     4    22    23   ar
     5    23    24   ar
     6    24    25    1
     7    24    26   ar
     8    26    27   ar
     9    27    28    1
    10    16    17    1
    11    17    18    1
    12    18    19    1
    13    19    14    1
    14    14    13    1
    15    13     7    1
    16     7     8   ar
    17     8     9   ar
    18     9    10   ar
    19    10     1    1
    20     1     2    1
    21     2     3    1
    22     3     4    1
    23     4    29    1
    24    29    30   ar
    25    30    31   ar
    26    31    32   ar
    27    32    35    1
    28    35    36   ar
    29    36    37   ar
    30    37    38   ar
    31    38    41    1
    32    41    42    1
    33    42    43    1
    34    43    44   ar
    35    43    45   ar
    36    38    39   ar
    37    39    40    2
    38    32    33   ar
    39    33    34   ar
    40     4     5    1
    41     5     6    1
    42    10    11   ar
    43    11    12   ar
    44    19    20    1
    45    20    16    1
    46    27    21   ar
    47    12     7   ar
    48     6     1    1
    49    34    29   ar
    50    39    35   ar
@<TRIPOS>MOLECULE
*****
 45 50 0 0 0
SMALL
GASTEIGER

@<TRIPOS>ATOM
      1 N          60.1786   90.2533    6.0566 N.pl3   1  UNL1       -0.3041
      2 C          58.8562   90.7949    5.6006 C.3     1  UNL1        0.1122
      3 C          58.7773   91.6348    4.3603 C.3     1  UNL1        0.1122
      4 N          60.0207   91.9333    3.5761 N.pl3   1  UNL1       -0.3041
      5 C          61.3430   91.3916    4.0322 C.3     1  UNL1        0.1122
      6 C          61.4220   90.5517    5.2724 C.3     1  UNL1        0.1122
      7 C          60.4154   87.7333    9.7773 C.ar    1  UNL1        0.1388
      8 C          59.5181   87.3212    8.6482 C.ar    1  UNL1        0.0382
      9 C          59.4391   88.1611    7.4080 C.ar    1  UNL1        0.0176
     10 C          60.2576   89.4133    7.2968 C.ar    1  UNL1        0.0481
     11 C          61.1549   89.8254    8.4259 C.ar    1  UNL1        0.0176
     12 C          61.2339   88.9854    9.6662 C.ar    1  UNL1        0.0382
     13 O          60.4944   86.8934   11.0175 O.3     1  UNL1       -0.4727
     14 C          61.3850   85.6869   11.0509 C.3     1  UNL1        0.2374
     15 C          65.0356   85.8283   14.9362 C.3     1  UNL1        0.0663
     16 C          63.9451   86.0907   13.9402 C.3     1  UNL1        0.2082
     17 O          64.2368   84.6906   13.4881 O.3     1  UNL1       -0.3281
     18 C          63.3133   84.3689   12.3507 C.3     1  UNL1        0.1783
     19 C          62.4509   85.5702   12.0999 C.3     1  UNL1        0.1909
     20 O          62.8413   86.6344   13.0823 O.3     1  UNL1       -0.3269
     21 C          63.8814   87.4361   14.6006 C.ar    1  UNL1        0.0390
     22 C          64.2972   88.6631   13.8447 C.ar    1  UNL1        0.0021
     23 C          64.2335   90.0083   14.5051 C.ar    1  UNL1        0.0113
     24 C          63.7540   90.1266   15.9215 C.ar    1  UNL1        0.0585
     25 CL         63.6903   91.4719   16.5819 Cl      1  UNL1       -0.0822
     26 C          63.3382   88.8996   16.6774 C.ar    1  UNL1        0.0226
     27 C          63.4019   87.5543   16.0170 C.ar    1  UNL1        0.0590
     28 CL         62.9861   86.3272   16.7729 Cl      1  UNL1       -0.0824
     29 C          59.9417   92.7732    2.3359 C.ar    1  UNL1        0.0480
     30 C          59.8584   94.2669    2.4458 C.ar    1  UNL1        0.0160
     31 C          59.7795   95.1069    1.2055 C.ar    1  UNL1        0.0190
     32 C          59.7839   94.4532   -0.1445 C.ar    1  UNL1        0.0699
     33 C          59.8672   92.9595   -0.2544 C.ar    1  UNL1        0.0190
     34 C          59.9461   92.1196    0.9858 C.ar    1  UNL1        0.0160
     35 N          59.7049   95.2932   -1.3848 N.ar    1  UNL1       -0.2398
     36 C          58.5714   96.1987   -1.7658 C.ar    1  UNL1        0.2073
     37 N          58.9116   96.8403   -3.0783 N.ar    1  UNL1       -0.1442
     38 N          60.2554   96.3314   -3.5085 N.ar    1  UNL1       -0.2001
     39 C          60.7457   95.3753   -2.4619 C.ar    1  UNL1        0.3523
     40 O          62.0482   94.6317   -2.4877 O.2     1  UNL1       -0.2444
     41 C          60.9815   96.7118   -4.7647 C.3     1  UNL1        0.1382
     42 C          61.0483   95.7492   -5.9130 C.3     1  UNL1        0.0682
     43 C          62.3593   95.1292   -6.2966 C.2     1  UNL1        0.0524
     44 O          63.5983   95.9724   -6.3579 O.co2   1  UNL1       -0.5491
     45 O          62.4311   93.6659   -6.6188 O.co2   1  UNL1       -0.5491
@<TRIPOS>UNITY_ATOM_ATTR
44 1
charge -1
@<TRIPOS>BOND
     1    15    16    1
     2    16    21    1
     3    21    22   ar
     4    22    23   ar
     5    23    24   ar
     6    24    25    1
     7    24    26   ar
     8    26    27   ar
     9    27    28    1
    10    16    17    1
    11    17    18    1
    12    18    19    1
    13    19    14    1
    14    14    13    1
    15    13     7    1
    16     7     8   ar
    17     8     9   ar
    18     9    10   ar
    19    10     1    1
    20     1     2    1
    21     2     3    1
    22     3     4    1
    23     4    29    1
    24    29    30   ar
    25    30    31   ar
    26    31    32   ar
    27    32    35    1
    28    35    36   ar
    29    36    37   ar
    30    37    38   ar
    31    38    41    1
    32    41    42    1
    33    42    43    1
    34    43    44   ar
    35    43    45   ar
    36    38    39   ar
    37    39    40    2
    38    32    33   ar
    39    33    34   ar
    40     4     5    1
    41     5     6    1
    42    10    11   ar
    43    11    12   ar
    44    19    20    1
    45    20    16    1
    46    27    21   ar
    47    12     7   ar
    48     6     1    1
    49    34    29   ar
    50    39    35   ar
@<TRIPOS>MOLECULE
*****
 45 50 0 0 0
SMALL
GASTEIGER

@<TRIPOS>ATOM
      1 N          59.8262   90.5424    5.6897 N.pl3   1  UNL1       -0.3041
      2 C          58.5015   91.0840    5.2400 C.3     1  UNL1        0.1122
      3 C          58.4109   91.8938    3.9807 C.3     1  UNL1        0.1122
      4 N          59.6447   92.1620    3.1708 N.pl3   1  UNL1       -0.3041
      5 C          60.9693   91.6204    3.6205 C.3     1  UNL1        0.1122
      6 C          61.0600   90.8106    4.8799 C.3     1  UNL1        0.1122
      7 C          60.0982   88.1131    9.4678 C.ar    1  UNL1        0.1388
      8 C          59.5232   87.5034    8.2238 C.ar    1  UNL1        0.0382
      9 C          59.4325   88.3130    6.9644 C.ar    1  UNL1        0.0176
     10 C          59.9168   89.7327    6.9490 C.ar    1  UNL1        0.0481
     11 C          60.4918   90.3425    8.1930 C.ar    1  UNL1        0.0176
     12 C          60.5825   89.5327    9.4524 C.ar    1  UNL1        0.0382
     13 O          60.1889   87.3034   10.7272 O.3     1  UNL1       -0.4727
     14 C          60.8532   87.8788   11.9427 C.3     1  UNL1        0.2374
     15 C          64.8569   84.9701   13.9305 C.3     1  UNL1        0.0663
     16 C          63.5902   85.5001   13.3269 C.3     1  UNL1        0.2082
     17 O          64.2380   86.8375   13.5314 O.3     1  UNL1       -0.3281
     18 C          63.2916   87.8913   13.0377 C.3     1  UNL1        0.1783
     19 C          62.0588   87.2053   12.5282 C.3     1  UNL1        0.1909
     20 O          62.2434   85.7274   12.7069 O.3     1  UNL1       -0.3269
     21 C          63.2073   84.0519   13.2486 C.ar    1  UNL1        0.0390
     22 C          63.6000   83.2359   12.0529 C.ar    1  UNL1        0.0021
     23 C          63.2170   81.7877   11.9747 C.ar    1  UNL1        0.0113
     24 C          62.4414   81.1556   13.0921 C.ar    1  UNL1        0.0585
     25 CL         62.0584   79.7074   13.0138 Cl      1  UNL1       -0.0822
     26 C          62.0486   81.9717   14.2878 C.ar    1  UNL1        0.0226
     27 C          62.4316   83.4198   14.3661 C.ar    1  UNL1        0.0590
     28 CL         62.0388   84.2359   15.5618 Cl      1  UNL1       -0.0824
     29 C          59.5541   92.9718    1.9115 C.ar    1  UNL1        0.0480
     30 C          58.8638   92.4075    0.7051 C.ar    1  UNL1        0.0160
     31 C          58.7731   93.2173   -0.5542 C.ar    1  UNL1        0.0190
     32 C          59.3727   94.5912   -0.6073 C.ar    1  UNL1        0.0699
     33 C          60.0630   95.1554    0.5991 C.ar    1  UNL1        0.0190
     34 C          60.1536   94.3457    1.8585 C.ar    1  UNL1        0.0160
     35 N          59.2820   95.4010   -1.8666 N.ar    1  UNL1       -0.2398
     36 C          58.1008   96.2121   -2.3103 C.ar    1  UNL1        0.2073
     37 N          58.4454   96.8542   -3.6213 N.ar    1  UNL1       -0.1442
     38 N          59.8396   96.4400   -3.9881 N.ar    1  UNL1       -0.2001
     39 C          60.3567   95.5418   -2.9037 C.ar    1  UNL1        0.3523
     40 O          61.7107   94.8976   -2.8633 O.2     1  UNL1       -0.2444
     41 C          60.5858   96.8516   -5.2225 C.3     1  UNL1        0.1382
     42 C          60.9897   95.8199   -6.2336 C.3     1  UNL1        0.0682
     43 C          62.3800   95.2569   -6.2163 C.2     1  UNL1        0.0524
     44 O          63.4774   95.9905   -5.5040 O.co2   1  UNL1       -0.5491
     45 O          62.6727   93.9601   -6.9112 O.co2   1  UNL1       -0.5491
@<TRIPOS>UNITY_ATOM_ATTR
44 1
charge -1
@<TRIPOS>BOND
     1    15    16    1
     2    16    21    1
     3    21    22   ar
     4    22    23   ar
     5    23    24   ar
     6    24    25    1
     7    24    26   ar
     8    26    27   ar
     9    27    28    1
    10    16    17    1
    11    17    18    1
    12    18    19    1
    13    19    14    1
    14    14    13    1
    15    13     7    1
    16     7     8   ar
    17     8     9   ar
    18     9    10   ar
    19    10     1    1
    20     1     2    1
    21     2     3    1
    22     3     4    1
    23     4    29    1
    24    29    30   ar
    25    30    31   ar
    26    31    32   ar
    27    32    35    1
    28    35    36   ar
    29    36    37   ar
    30    37    38   ar
    31    38    41    1
    32    41    42    1
    33    42    43    1
    34    43    44   ar
    35    43    45   ar
    36    38    39   ar
    37    39    40    2
    38    32    33   ar
    39    33    34   ar
    40     4     5    1
    41     5     6    1
    42    10    11   ar
    43    11    12   ar
    44    19    20    1
    45    20    16    1
    46    27    21   ar
    47    12     7   ar
    48     6     1    1
    49    34    29   ar
    50    39    35   ar
@<TRIPOS>MOLECULE
*****
 45 50 0 0 0
SMALL
GASTEIGER

@<TRIPOS>ATOM
      1 N          59.9673   90.4055    6.0473 N.pl3   1  UNL1       -0.3041
      2 C          58.5905   90.7991    5.6006 C.3     1  UNL1        0.1122
      3 C          58.4117   91.6267    4.3624 C.3     1  UNL1        0.1122
      4 N          59.6097   92.0608    3.5709 N.pl3   1  UNL1       -0.3041
      5 C          60.9865   91.6671    4.0176 C.3     1  UNL1        0.1122
      6 C          61.1652   90.8395    5.2558 C.3     1  UNL1        0.1122
      7 C          60.5035   87.9227    9.7618 C.ar    1  UNL1        0.1388
      8 C          59.7045   87.3873    8.6107 C.ar    1  UNL1        0.0382
      9 C          59.5257   88.2148    7.3726 C.ar    1  UNL1        0.0176
     10 C          60.1460   89.5779    7.2855 C.ar    1  UNL1        0.0481
     11 C          60.9450   90.1133    8.4366 C.ar    1  UNL1        0.0176
     12 C          61.1237   89.2856    9.6747 C.ar    1  UNL1        0.0382
     13 O          60.6822   87.0951   11.0000 O.3     1  UNL1       -0.4727
     14 C          61.6388   87.5384   12.0669 C.3     1  UNL1        0.2374
     15 C          64.8599   83.6570   13.7992 C.3     1  UNL1        0.0663
     16 C          63.8571   84.5252   13.0988 C.3     1  UNL1        0.2082
     17 O          64.3027   85.5642   14.0847 O.3     1  UNL1       -0.3281
     18 C          63.5259   86.8194   13.8181 C.3     1  UNL1        0.1783
     19 C          62.6003   86.5562   12.6675 C.3     1  UNL1        0.1909
     20 O          62.8050   85.1383   12.2230 O.3     1  UNL1       -0.3269
     21 C          63.6213   83.3047   12.2594 C.ar    1  UNL1        0.0390
     22 C          64.2625   83.1882   10.9084 C.ar    1  UNL1        0.0021
     23 C          64.0267   81.9676   10.0690 C.ar    1  UNL1        0.0113
     24 C          63.1495   80.8636   10.5806 C.ar    1  UNL1        0.0585
     25 CL         62.9136   79.6430    9.7411 Cl      1  UNL1       -0.0822
     26 C          62.5082   80.9801   11.9316 C.ar    1  UNL1        0.0226
     27 C          62.7441   82.2006   12.7709 C.ar    1  UNL1        0.0590
     28 CL         62.1028   82.3172   14.1220 Cl      1  UNL1       -0.0824
     29 C          59.4310   92.8884    2.3327 C.ar    1  UNL1        0.0480
     30 C          60.0693   94.2425    2.2371 C.ar    1  UNL1        0.0160
     31 C          59.8905   95.0701    0.9989 C.ar    1  UNL1        0.0190
     32 C          59.0736   94.5436   -0.1436 C.ar    1  UNL1        0.0699
     33 C          58.4353   93.1895   -0.0480 C.ar    1  UNL1        0.0190
     34 C          58.6140   92.3619    1.1902 C.ar    1  UNL1        0.0160
     35 N          58.8948   95.3712   -1.3818 N.ar    1  UNL1       -0.2398
     36 C          59.9526   96.1991   -2.0493 C.ar    1  UNL1        0.2073
     37 N          59.3384   96.8558   -3.2499 N.ar    1  UNL1       -0.1442
     38 N          57.9010   96.4338   -3.3245 N.ar    1  UNL1       -0.2001
     39 C          57.6268   95.5163   -2.1700 C.ar    1  UNL1        0.3523
     40 O          56.3149   94.8592   -1.8582 O.2     1  UNL1       -0.2444
     41 C          56.9114   96.8553   -4.3700 C.3     1  UNL1        0.1382
     42 C          56.4439   95.8706   -5.4004 C.3     1  UNL1        0.0682
     43 C          57.1369   94.5479   -5.5425 C.2     1  UNL1        0.0524
     44 O          58.3580   94.4298   -6.4055 O.co2   1  UNL1       -0.5491
     45 O          56.6086   93.3432   -4.8215 O.co2   1  UNL1       -0.5491
@<TRIPOS>UNITY_ATOM_ATTR
44 1
charge -1
@<TRIPOS>BOND
     1    15    16    1
     2    16    21    1
     3    21    22   ar
     4    22    23   ar
     5    23    24   ar
     6    24    25    1
     7    24    26   ar
     8    26    27   ar
     9    27    28    1
    10    16    17    1
    11    17    18    1
    12    18    19    1
    13    19    14    1
    14    14    13    1
    15    13     7    1
    16     7     8   ar
    17     8     9   ar
    18     9    10   ar
    19    10     1    1
    20     1     2    1
    21     2     3    1
    22     3     4    1
    23     4    29    1
    24    29    30   ar
    25    30    31   ar
    26    31    32   ar
    27    32    35    1
    28    35    36   ar
    29    36    37   ar
    30    37    38   ar
    31    38    41    1
    32    41    42    1
    33    42    43    1
    34    43    44   ar
    35    43    45   ar
    36    38    39   ar
    37    39    40    2
    38    32    33   ar
    39    33    34   ar
    40     4     5    1
    41     5     6    1
    42    10    11   ar
    43    11    12   ar
    44    19    20    1
    45    20    16    1
    46    27    21   ar
    47    12     7   ar
    48     6     1    1
    49    34    29   ar
    50    39    35   ar
@<TRIPOS>MOLECULE
*****
 45 50 0 0 0
SMALL
GASTEIGER

@<TRIPOS>ATOM
      1 N          59.6326   92.6373    3.0377 N.pl3   1  UNL1       -0.3041
      2 C          61.0119   92.1269    3.3327 C.3     1  UNL1        0.1122
      3 C          61.2432   91.2303    4.5128 C.3     1  UNL1        0.1122
      4 N          60.0953   90.8442    5.3980 N.pl3   1  UNL1       -0.3041
      5 C          58.7161   91.3547    5.1028 C.3     1  UNL1        0.1122
      6 C          58.4848   92.2513    3.9227 C.3     1  UNL1        0.1122
      7 C          58.9386   95.3269   -0.5027 C.ar    1  UNL1        0.1388
      8 C          59.7180   95.8267    0.6775 C.ar    1  UNL1        0.0382
      9 C          59.9494   94.9302    1.8576 C.ar    1  UNL1        0.0176
     10 C          59.4013   93.5339    1.8576 C.ar    1  UNL1        0.0481
     11 C          58.6218   93.0341    0.6774 C.ar    1  UNL1        0.0176
     12 C          58.3905   93.9307   -0.5027 C.ar    1  UNL1        0.0382
     13 O          58.7072   96.2235   -1.6828 O.3     1  UNL1       -0.4727
     14 C          59.2711   95.8585   -3.0240 C.3     1  UNL1        0.2374
     15 C          64.1214   93.6518   -2.8054 C.3     1  UNL1        0.0663
     16 C          62.8282   94.3737   -2.5678 C.3     1  UNL1        0.2082
     17 O          62.4947   93.9067   -3.9537 O.3     1  UNL1       -0.3281
     18 C          61.1216   94.4061   -4.2932 C.3     1  UNL1        0.1783
     19 C          60.6065   95.1817   -3.1172 C.3     1  UNL1        0.1909
     20 O          61.6612   95.1617   -2.0508 O.3     1  UNL1       -0.3269
     21 C          63.4321   94.6898   -1.2315 C.ar    1  UNL1        0.0390
     22 C          64.4224   95.8089   -1.1019 C.ar    1  UNL1        0.0021
     23 C          65.0262   96.1249    0.2343 C.ar    1  UNL1        0.0113
     24 C          64.6397   95.3219    1.4408 C.ar    1  UNL1        0.0585
     25 CL         65.2436   95.6379    2.7771 Cl      1  UNL1       -0.0822
     26 C          63.6494   94.2028    1.3112 C.ar    1  UNL1        0.0226
     27 C          63.0456   93.8868   -0.0250 C.ar    1  UNL1        0.0590
     28 CL         62.0552   92.7676   -0.1547 Cl      1  UNL1       -0.0824
     29 C          60.3267   89.9477    6.5781 C.ar    1  UNL1        0.0480
     30 C          61.1411   90.4332    7.7404 C.ar    1  UNL1        0.0160
     31 C          61.3725   89.5366    8.9206 C.ar    1  UNL1        0.0190
     32 C          60.7894   88.1547    8.9383 C.ar    1  UNL1        0.0699
     33 C          59.9749   87.6693    7.7759 C.ar    1  UNL1        0.0190
     34 C          59.7436   88.5658    6.5958 C.ar    1  UNL1        0.0160
     35 N          61.0207   87.2582   10.1184 N.ar    1  UNL1       -0.2398
     36 C          60.4480   87.4436   11.4923 C.ar    1  UNL1        0.2073
     37 N          60.9387   86.3188   12.3548 N.ar    1  UNL1       -0.1442
     38 N          61.8148   85.4382   11.5141 N.ar    1  UNL1       -0.2001
     39 C          61.8655   86.0187   10.1319 C.ar    1  UNL1        0.3523
     40 O          62.6272   85.4582    8.9676 O.2     1  UNL1       -0.2444
     41 C          62.5169   84.1952   11.9746 C.3     1  UNL1        0.1382
     42 C          63.5209   84.2693   13.0866 C.3     1  UNL1        0.0682
     43 C          63.1136   83.9259   14.4888 C.2     1  UNL1        0.0524
     44 O          61.9452   84.6215   15.1220 O.co2   1  UNL1       -0.5491
     45 O          63.8748   82.8870   15.2578 O.co2   1  UNL1       -0.5491
@<TRIPOS>UNITY_ATOM_ATTR
44 1
charge -1
@<TRIPOS>BOND
     1    15    16    1
     2    16    21    1
     3    21    22   ar
     4    22    23   ar
     5    23    24   ar
     6    24    25    1
     7    24    26   ar
     8    26    27   ar
     9    27    28    1
    10    16    17    1
    11    17    18    1
    12    18    19    1
    13    19    14    1
    14    14    13    1
    15    13     7    1
    16     7     8   ar
    17     8     9   ar
    18     9    10   ar
    19    10     1    1
    20     1     2    1
    21     2     3    1
    22     3     4    1
    23     4    29    1
    24    29    30   ar
    25    30    31   ar
    26    31    32   ar
    27    32    35    1
    28    35    36   ar
    29    36    37   ar
    30    37    38   ar
    31    38    41    1
    32    41    42    1
    33    42    43    1
    34    43    44   ar
    35    43    45   ar
    36    38    39   ar
    37    39    40    2
    38    32    33   ar
    39    33    34   ar
    40     4     5    1
    41     5     6    1
    42    10    11   ar
    43    11    12   ar
    44    19    20    1
    45    20    16    1
    46    27    21   ar
    47    12     7   ar
    48     6     1    1
    49    34    29   ar
    50    39    35   ar
@<TRIPOS>MOLECULE
*****
 45 50 0 0 0
SMALL
GASTEIGER

@<TRIPOS>ATOM
      1 N          60.0020   93.9032   -0.2636 N.pl3   1  UNL1       -0.3041
      2 C          59.8526   94.6603    1.0227 C.3     1  UNL1        0.1122
      3 C          59.8231   93.9223    2.3283 C.3     1  UNL1        0.1122
      4 N          59.9430   92.4271    2.3476 N.pl3   1  UNL1       -0.3041
      5 C          60.0923   91.6701    1.0613 C.3     1  UNL1        0.1122
      6 C          60.1219   92.4081   -0.2443 C.3     1  UNL1        0.1122
      7 C          60.0906   96.1173   -4.1801 C.ar    1  UNL1        0.1388
      8 C          60.6773   96.7447   -2.9504 C.ar    1  UNL1        0.0382
      9 C          60.6479   96.0067   -1.6449 C.ar    1  UNL1        0.0176
     10 C          60.0315   94.6412   -1.5691 C.ar    1  UNL1        0.0481
     11 C          59.4448   94.0138   -2.7988 C.ar    1  UNL1        0.0176
     12 C          59.4743   94.7519   -4.1043 C.ar    1  UNL1        0.0382
     13 O          60.1201   96.8554   -5.4856 O.3     1  UNL1       -0.4727
     14 C          60.8904   96.2973   -6.6455 C.3     1  UNL1        0.2374
     15 C          65.4801   93.9659   -5.2523 C.3     1  UNL1        0.0663
     16 C          64.1908   94.7276   -5.3384 C.3     1  UNL1        0.2082
     17 O          64.1790   94.2388   -6.7564 O.3     1  UNL1       -0.3281
     18 C          62.9413   94.7673   -7.4186 C.3     1  UNL1        0.1783
     19 C          62.1880   95.5828   -6.4099 C.3     1  UNL1        0.1909
     20 O          62.9603   95.5583   -5.1242 O.3     1  UNL1       -0.3269
     21 C          64.4722   95.0572   -3.9023 C.ar    1  UNL1        0.0390
     22 C          65.3478   96.2256   -3.5586 C.ar    1  UNL1        0.0021
     23 C          65.6291   96.5551   -2.1226 C.ar    1  UNL1        0.0113
     24 C          65.0348   95.7163   -1.0302 C.ar    1  UNL1        0.0585
     25 CL         65.3161   96.0459    0.4059 Cl      1  UNL1       -0.0822
     26 C          64.1591   94.5480   -1.3740 C.ar    1  UNL1        0.0226
     27 C          63.8778   94.2184   -2.8100 C.ar    1  UNL1        0.0590
     28 CL         63.0021   93.0500   -3.1538 Cl      1  UNL1       -0.0824
     29 C          59.9134   91.6891    3.6531 C.ar    1  UNL1        0.0480
     30 C          58.6357   91.5962    4.4333 C.ar    1  UNL1        0.0160
     31 C          58.6062   90.8581    5.7389 C.ar    1  UNL1        0.0190
     32 C          59.8543   90.2130    6.2641 C.ar    1  UNL1        0.0699
     33 C          61.1321   90.3059    5.4839 C.ar    1  UNL1        0.0190
     34 C          61.1616   91.0440    4.1783 C.ar    1  UNL1        0.0160
     35 N          59.8248   89.4750    7.5696 N.ar    1  UNL1       -0.2398
     36 C          58.9402   88.3108    7.9046 C.ar    1  UNL1        0.2073
     37 N          59.2434   87.8879    9.3114 N.ar    1  UNL1       -0.1442
     38 N          60.3155   88.7906    9.8460 N.ar    1  UNL1       -0.2001
     39 C          60.6748   89.7714    8.7695 C.ar    1  UNL1        0.3523
     40 O          61.7035   90.8580    8.8745 O.2     1  UNL1       -0.2444
     41 C          60.9217   88.7241   11.2164 C.3     1  UNL1        0.1382
     42 C          62.3808   88.4155   11.3768 C.3     1  UNL1        0.0682
     43 C          63.2268   89.2473   12.2946 C.2     1  UNL1        0.0524
     44 O          63.9162   88.6087   13.4637 O.co2   1  UNL1       -0.5491
     45 O          63.3835   90.7178   12.0432 O.co2   1  UNL1       -0.5491
@<TRIPOS>UNITY_ATOM_ATTR
44 1
charge -1
@<TRIPOS>BOND
     1    15    16    1
     2    16    21    1
     3    21    22   ar
     4    22    23   ar
     5    23    24   ar
     6    24    25    1
     7    24    26   ar
     8    26    27   ar
     9    27    28    1
    10    16    17    1
    11    17    18    1
    12    18    19    1
    13    19    14    1
    14    14    13    1
    15    13     7    1
    16     7     8   ar
    17     8     9   ar
    18     9    10   ar
    19    10     1    1
    20     1     2    1
    21     2     3    1
    22     3     4    1
    23     4    29    1
    24    29    30   ar
    25    30    31   ar
    26    31    32   ar
    27    32    35    1
    28    35    36   ar
    29    36    37   ar
    30    37    38   ar
    31    38    41    1
    32    41    42    1
    33    42    43    1
    34    43    44   ar
    35    43    45   ar
    36    38    39   ar
    37    39    40    2
    38    32    33   ar
    39    33    34   ar
    40     4     5    1
    41     5     6    1
    42    10    11   ar
    43    11    12   ar
    44    19    20    1
    45    20    16    1
    46    27    21   ar
    47    12     7   ar
    48     6     1    1
    49    34    29   ar
    50    39    35   ar
@<TRIPOS>MOLECULE
*****
 45 50 0 0 0
SMALL
GASTEIGER

@<TRIPOS>ATOM
      1 N          59.9943   90.2491    6.0051 N.pl3   1  UNL1       -0.3041
      2 C          58.6070   90.6529    5.6022 C.3     1  UNL1        0.1122
      3 C          58.3970   91.5004    4.3825 C.3     1  UNL1        0.1122
      4 N          59.5743   91.9442    3.5657 N.pl3   1  UNL1       -0.3041
      5 C          60.9616   91.5403    3.9687 C.3     1  UNL1        0.1122
      6 C          61.1716   90.6928    5.1883 C.3     1  UNL1        0.1122
      7 C          60.6241   87.7065    9.6641 C.ar    1  UNL1        0.1388
      8 C          59.9794   87.1184    8.4440 C.ar    1  UNL1        0.0382
      9 C          59.7695   87.9659    7.2244 C.ar    1  UNL1        0.0176
     10 C          60.2042   89.4016    7.2248 C.ar    1  UNL1        0.0481
     11 C          60.8489   89.9897    8.4448 C.ar    1  UNL1        0.0176
     12 C          61.0588   89.1421    9.6645 C.ar    1  UNL1        0.0382
     13 O          60.8340   86.8590   10.8838 O.3     1  UNL1       -0.4727
     14 C          61.9134   87.2101   11.8644 C.3     1  UNL1        0.2374
     15 C          64.2968   82.9866   14.0833 C.3     1  UNL1        0.0663
     16 C          63.5462   83.9634   13.2274 C.3     1  UNL1        0.2082
     17 O          63.9155   84.9456   14.2993 O.3     1  UNL1       -0.3281
     18 C          63.3488   86.2813   13.9191 C.3     1  UNL1        0.1783
     19 C          62.6293   86.1247   12.6124 C.3     1  UNL1        0.1909
     20 O          62.7513   84.6921   12.1849 O.3     1  UNL1       -0.3269
     21 C          63.3339   82.7769   12.3345 C.ar    1  UNL1        0.0390
     22 C          62.6755   81.5414   12.8729 C.ar    1  UNL1        0.0021
     23 C          62.4631   80.3550   11.9800 C.ar    1  UNL1        0.0113
     24 C          62.9092   80.4041   10.5487 C.ar    1  UNL1        0.0585
     25 CL         62.6968   79.2176    9.6558 Cl      1  UNL1       -0.0822
     26 C          63.5676   81.6397   10.0103 C.ar    1  UNL1        0.0226
     27 C          63.7799   82.8260   10.9032 C.ar    1  UNL1        0.0590
     28 CL         64.4384   84.0617   10.3648 Cl      1  UNL1       -0.0824
     29 C          59.3644   92.7917    2.3460 C.ar    1  UNL1        0.0480
     30 C          60.0618   94.1140    2.2225 C.ar    1  UNL1        0.0160
     31 C          59.8519   94.9615    1.0028 C.ar    1  UNL1        0.0190
     32 C          58.9446   94.4868   -0.0933 C.ar    1  UNL1        0.0699
     33 C          58.2472   93.1645    0.0303 C.ar    1  UNL1        0.0190
     34 C          58.4571   92.3169    1.2499 C.ar    1  UNL1        0.0160
     35 N          58.7346   95.3343   -1.3129 N.ar    1  UNL1       -0.2398
     36 C          57.5305   96.1807   -1.6019 C.ar    1  UNL1        0.2073
     37 N          57.7436   96.8537   -2.9254 N.ar    1  UNL1       -0.1442
     38 N          59.0796   96.4233   -3.4544 N.ar    1  UNL1       -0.2001
     39 C          59.6921   95.4842   -2.4579 C.ar    1  UNL1        0.3523
     40 O          61.0275   94.8129   -2.5842 O.2     1  UNL1       -0.2444
     41 C          59.6950   96.8559   -4.7522 C.3     1  UNL1        0.1382
     42 C          58.9493   96.6583   -6.0385 C.3     1  UNL1        0.0682
     43 C          58.8071   95.2826   -6.6192 C.2     1  UNL1        0.0524
     44 O          57.5608   94.9087   -7.3655 O.co2   1  UNL1       -0.5491
     45 O          59.9112   94.2807   -6.4535 O.co2   1  UNL1       -0.5491
@<TRIPOS>UNITY_ATOM_ATTR
44 1
charge -1
@<TRIPOS>BOND
     1    15    16    1
     2    16    21    1
     3    21    22   ar
     4    22    23   ar
     5    23    24   ar
     6    24    25    1
     7    24    26   ar
     8    26    27   ar
     9    27    28    1
    10    16    17    1
    11    17    18    1
    12    18    19    1
    13    19    14    1
    14    14    13    1
    15    13     7    1
    16     7     8   ar
    17     8     9   ar
    18     9    10   ar
    19    10     1    1
    20     1     2    1
    21     2     3    1
    22     3     4    1
    23     4    29    1
    24    29    30   ar
    25    30    31   ar
    26    31    32   ar
    27    32    35    1
    28    35    36   ar
    29    36    37   ar
    30    37    38   ar
    31    38    41    1
    32    41    42    1
    33    42    43    1
    34    43    44   ar
    35    43    45   ar
    36    38    39   ar
    37    39    40    2
    38    32    33   ar
    39    33    34   ar
    40     4     5    1
    41     5     6    1
    42    10    11   ar
    43    11    12   ar
    44    19    20    1
    45    20    16    1
    46    27    21   ar
    47    12     7   ar
    48     6     1    1
    49    34    29   ar
    50    39    35   ar
