@<TRIPOS>MOLECULE
*****
 31 33 0 0 0
SMALL
GASTEIGER

@<TRIPOS>ATOM
      1 C          62.6320   89.6591   11.9167 C.ar    1  UNL1        0.1681
      2 C          63.5832   89.7986   13.0681 C.ar    1  UNL1        0.0702
      3 C          64.6488   90.8538   13.0370 C.ar    1  UNL1        0.1620
      4 F          65.6001   90.9933   14.1884 F       1  UNL1       -0.2026
      5 C          64.7631   91.7695   11.8544 C.ar    1  UNL1        0.1549
      6 C          63.8119   91.6300   10.7031 C.ar    1  UNL1        0.0553
      7 C          62.7464   90.5748   10.7342 C.ar    1  UNL1        0.1753
      8 F          61.7951   90.4353    9.5828 F       1  UNL1       -0.2009
      9 S          65.8288   92.8248   11.8233 S.O2    1  UNL1        0.0773
     10 O          65.4095   93.2883   13.1869 O.2     1  UNL1       -0.1498
     11 O          66.2481   92.3612   10.4598 O.2     1  UNL1       -0.1498
     12 N          66.8944   93.8800   11.7923 N.pl3   1  UNL1       -0.1925
     13 H          67.5970   93.8905   12.4818 H       1  UNL1        0.1758
     14 C          66.8894   94.9193   10.7106 C.ar    1  UNL1        0.1977
     15 N          67.8524   95.0028    9.5636 N.ar    1  UNL1       -0.1997
     16 C          67.4787   96.1927    8.7303 C.ar    1  UNL1        0.2082
     17 N          66.2847   96.8447    9.3623 N.ar    1  UNL1       -0.1840
     18 S          65.9205   96.0577   10.5863 S.2     1  UNL1        0.0508
     19 O          61.5663   88.6038   11.9479 O.3     1  UNL1       -0.4731
     20 C          61.4373   87.6345   10.8105 C.3     1  UNL1        0.2055
     21 C          61.3246   86.1644   11.0870 C.3     1  UNL1        0.0473
     22 C          61.9628   85.9122    9.2849 C.3     1  UNL1        0.0001
     23 C          62.3606   85.2195   10.5545 C.3     1  UNL1        0.0037
     24 C          62.3986   84.8550   12.0090 C.3     1  UNL1        0.0015
     25 C          63.3345   83.7860   12.4901 C.3     1  UNL1        0.0155
     26 C          64.2324   83.0816   11.5167 C.3     1  UNL1        0.0508
     27 N          65.1683   82.0127   11.9978 N.3     1  UNL1       -0.3222
     28 C          64.1944   83.4461   10.0622 C.3     1  UNL1        0.0155
     29 C          63.2585   84.5150    9.5810 C.3     1  UNL1        0.0015
     30 H          65.0621   81.8962   13.0055 H       1  UNL1        0.1188
     31 H          66.1292   82.2815   11.7859 H       1  UNL1        0.1188
@<TRIPOS>BOND
     1    23    22    1
     2    23    21    1
     3    21    20    1
     4    20    19    1
     5    19     1    1
     6     1     2   ar
     7     2     3   ar
     8     3     4    1
     9     3     5   ar
    10     5     9    1
    11     9    10    2
    12     9    11    2
    13     9    12    1
    14    12    14    1
    15    14    15   ar
    16    15    16   ar
    17    16    17   ar
    18    17    18   ar
    19     5     6   ar
    20     6     7   ar
    21     7     8    1
    22    23    24    1
    23    24    25    1
    24    25    26    1
    25    26    27    1
    26    26    28    1
    27    28    29    1
    28    29    23    1
    29     7     1   ar
    30    18    14   ar
    31    12    13    1
    32    27    30    1
    33    27    31    1
@<TRIPOS>MOLECULE
*****
 31 33 0 0 0
SMALL
GASTEIGER

@<TRIPOS>ATOM
      1 C          61.8793   88.4868   10.9088 C.ar    1  UNL1        0.1681
      2 C          62.7811   88.4090   12.1048 C.ar    1  UNL1        0.0702
      3 C          63.6577   89.5732   12.4601 C.ar    1  UNL1        0.1620
      4 F          64.5596   89.4954   13.6562 F       1  UNL1       -0.2026
      5 C          63.6323   90.8152   11.6194 C.ar    1  UNL1        0.1549
      6 C          62.7304   90.8930   10.4234 C.ar    1  UNL1        0.0553
      7 C          61.8539   89.7288   10.0681 C.ar    1  UNL1        0.1753
      8 F          60.9519   89.8066    8.8720 F       1  UNL1       -0.2009
      9 S          64.5089   91.9794   11.9748 S.O2    1  UNL1        0.0773
     10 O          65.0511   91.9980   10.5764 O.2     1  UNL1       -0.1498
     11 O          63.9667   91.9609   13.3732 O.2     1  UNL1       -0.1498
     12 N          65.3854   93.1436   12.3301 N.pl3   1  UNL1       -0.1925
     13 H          65.3037   93.9905   11.8348 H       1  UNL1        0.1758
     14 C          66.3866   93.0174   13.4400 C.ar    1  UNL1        0.1977
     15 N          66.4768   93.8988   14.6504 N.ar    1  UNL1       -0.1997
     16 C          67.6192   93.4138   15.4928 C.ar    1  UNL1        0.2082
     17 N          68.2350   92.2327   14.8031 N.ar    1  UNL1       -0.1840
     18 S          67.4732   91.9877   13.5343 S.2     1  UNL1        0.0508
     19 O          61.0027   87.3225   10.5534 O.3     1  UNL1       -0.4731
     20 C          61.3827   85.9378   10.9869 C.3     1  UNL1        0.2055
     21 C          62.5076   85.2196   10.3020 C.3     1  UNL1        0.0473
     22 C          63.6554   83.8370    9.6024 C.3     1  UNL1        0.0001
     23 C          63.2431   84.1245   11.0157 C.3     1  UNL1        0.0037
     24 C          62.5755   84.7923   12.1811 C.3     1  UNL1        0.0015
     25 C          62.7865   84.2651   13.5694 C.3     1  UNL1        0.0155
     26 C          63.6653   83.0701   13.7924 C.3     1  UNL1        0.0508
     27 N          63.8763   82.5429   15.1807 N.3     1  UNL1       -0.3222
     28 C          64.3330   82.4023   12.6270 C.3     1  UNL1        0.0155
     29 C          64.1219   82.9294   11.2386 C.3     1  UNL1        0.0015
     30 H          63.3518   83.1130   15.8443 H       1  UNL1        0.1188
     31 H          64.8693   82.5800   15.4112 H       1  UNL1        0.1188
@<TRIPOS>BOND
     1    23    22    1
     2    23    21    1
     3    21    20    1
     4    20    19    1
     5    19     1    1
     6     1     2   ar
     7     2     3   ar
     8     3     4    1
     9     3     5   ar
    10     5     9    1
    11     9    10    2
    12     9    11    2
    13     9    12    1
    14    12    14    1
    15    14    15   ar
    16    15    16   ar
    17    16    17   ar
    18    17    18   ar
    19     5     6   ar
    20     6     7   ar
    21     7     8    1
    22    23    24    1
    23    24    25    1
    24    25    26    1
    25    26    27    1
    26    26    28    1
    27    28    29    1
    28    29    23    1
    29     7     1   ar
    30    18    14   ar
    31    12    13    1
    32    27    30    1
    33    27    31    1
@<TRIPOS>MOLECULE
*****
 31 33 0 0 0
SMALL
GASTEIGER

@<TRIPOS>ATOM
      1 C          63.7156   89.7602   15.6710 C.ar    1  UNL1        0.1681
      2 C          63.2206   88.9907   16.8596 C.ar    1  UNL1        0.0702
      3 C          63.2263   87.4909   16.8374 C.ar    1  UNL1        0.1620
      4 F          62.7313   86.7213   18.0260 F       1  UNL1       -0.2026
      5 C          63.7270   86.7606   15.6266 C.ar    1  UNL1        0.1549
      6 C          64.2220   87.5301   14.4380 C.ar    1  UNL1        0.0553
      7 C          64.2163   89.0299   14.4602 C.ar    1  UNL1        0.1753
      8 F          64.7114   89.7995   13.2716 F       1  UNL1       -0.2009
      9 S          63.7327   85.2607   15.6044 S.O2    1  UNL1        0.0773
     10 O          62.2778   85.2499   15.9692 O.2     1  UNL1       -0.1498
     11 O          65.1876   85.2716   15.2396 O.2     1  UNL1       -0.1498
     12 N          63.7383   83.7609   15.5823 N.pl3   1  UNL1       -0.1925
     13 H          64.1246   83.2590   16.3359 H       1  UNL1        0.1758
     14 C          63.1553   83.0259   14.4118 C.ar    1  UNL1        0.1977
     15 N          62.4415   81.7078   14.4652 N.ar    1  UNL1       -0.1997
     16 C          62.0288   81.3472   13.0688 C.ar    1  UNL1        0.2082
     17 N          62.4877   82.4426   12.1524 N.ar    1  UNL1       -0.1840
     18 S          63.1839   83.4801   12.9825 S.2     1  UNL1        0.0508
     19 O          63.7100   91.2601   15.6931 O.3     1  UNL1       -0.4731
     20 C          64.9849   92.0114   15.9379 C.3     1  UNL1        0.2055
     21 C          65.5730   92.8643   14.8530 C.3     1  UNL1        0.0473
     22 C          67.2093   92.0309   15.4417 C.3     1  UNL1        0.0001
     23 C          66.7412   92.3643   14.0561 C.3     1  UNL1        0.0037
     24 C          65.8674   92.8713   12.9474 C.3     1  UNL1        0.0015
     25 C          66.3244   92.7626   11.5228 C.3     1  UNL1        0.0155
     26 C          67.6553   92.1468   11.2071 C.3     1  UNL1        0.0508
     27 N          68.1123   92.0380    9.7825 N.3     1  UNL1       -0.3222
     28 C          68.5290   91.6397   12.3158 C.3     1  UNL1        0.0155
     29 C          68.0721   91.7485   13.7403 C.3     1  UNL1        0.0015
     30 H          67.3998   92.4290    9.1661 H       1  UNL1        0.1188
     31 H          68.2636   91.0570    9.5480 H       1  UNL1        0.1188
@<TRIPOS>BOND
     1    23    22    1
     2    23    21    1
     3    21    20    1
     4    20    19    1
     5    19     1    1
     6     1     2   ar
     7     2     3   ar
     8     3     4    1
     9     3     5   ar
    10     5     9    1
    11     9    10    2
    12     9    11    2
    13     9    12    1
    14    12    14    1
    15    14    15   ar
    16    15    16   ar
    17    16    17   ar
    18    17    18   ar
    19     5     6   ar
    20     6     7   ar
    21     7     8    1
    22    23    24    1
    23    24    25    1
    24    25    26    1
    25    26    27    1
    26    26    28    1
    27    28    29    1
    28    29    23    1
    29     7     1   ar
    30    18    14   ar
    31    12    13    1
    32    27    30    1
    33    27    31    1
@<TRIPOS>MOLECULE
*****
 31 33 0 0 0
SMALL
GASTEIGER

@<TRIPOS>ATOM
      1 C          62.9440   88.4915   11.7756 C.ar    1  UNL1        0.1681
      2 C          63.6911   88.4343   13.0750 C.ar    1  UNL1        0.0702
      3 C          63.8614   87.1241   13.7851 C.ar    1  UNL1        0.1620
      4 F          64.6085   87.0668   15.0846 F       1  UNL1       -0.2026
      5 C          63.2847   85.8710   13.1958 C.ar    1  UNL1        0.1549
      6 C          62.5376   85.9282   11.8964 C.ar    1  UNL1        0.0553
      7 C          62.3672   87.2385   11.1863 C.ar    1  UNL1        0.1753
      8 F          61.6201   87.2957    9.8868 F       1  UNL1       -0.2009
      9 S          63.4550   84.5608   13.9059 S.O2    1  UNL1        0.0773
     10 O          62.2488   84.8593   14.7460 O.2     1  UNL1       -0.1498
     11 O          64.6613   84.2623   13.0659 O.2     1  UNL1       -0.1498
     12 N          63.6254   83.2506   14.6161 N.pl3   1  UNL1       -0.1925
     13 H          64.2118   83.1907   15.4046 H       1  UNL1        0.1758
     14 C          62.9021   82.0317   14.1249 C.ar    1  UNL1        0.1977
     15 N          61.5125   81.6168   14.5081 N.ar    1  UNL1       -0.1997
     16 C          61.1931   80.3424   13.7843 C.ar    1  UNL1        0.2082
     17 N          62.3853   79.9696   12.9539 N.ar    1  UNL1       -0.1840
     18 S          63.4416   81.0137   13.1644 S.2     1  UNL1        0.0508
     19 O          62.7736   89.8017   11.0654 O.3     1  UNL1       -0.4731
     20 C          63.2907   91.0648   11.6876 C.3     1  UNL1        0.2055
     21 C          64.5710   91.6731   11.1969 C.3     1  UNL1        0.0473
     22 C          65.4820   93.3240   10.7924 C.3     1  UNL1        0.0001
     23 C          65.3601   92.5830   12.0910 C.3     1  UNL1        0.0037
     24 C          64.9642   91.5261   13.0790 C.3     1  UNL1        0.0015
     25 C          65.3997   91.6364   14.5101 C.3     1  UNL1        0.0155
     26 C          66.2311   92.8036   14.9532 C.3     1  UNL1        0.0508
     27 N          66.6666   92.9139   16.3844 N.3     1  UNL1       -0.3222
     28 C          66.6270   93.8605   13.9653 C.3     1  UNL1        0.0155
     29 C          66.1915   93.7503   12.5341 C.3     1  UNL1        0.0015
     30 H          66.3110   92.1156   16.9104 H       1  UNL1        0.1188
     31 H          66.2994   93.7766   16.7860 H       1  UNL1        0.1188
@<TRIPOS>BOND
     1    23    22    1
     2    23    21    1
     3    21    20    1
     4    20    19    1
     5    19     1    1
     6     1     2   ar
     7     2     3   ar
     8     3     4    1
     9     3     5   ar
    10     5     9    1
    11     9    10    2
    12     9    11    2
    13     9    12    1
    14    12    14    1
    15    14    15   ar
    16    15    16   ar
    17    16    17   ar
    18    17    18   ar
    19     5     6   ar
    20     6     7   ar
    21     7     8    1
    22    23    24    1
    23    24    25    1
    24    25    26    1
    25    26    27    1
    26    26    28    1
    27    28    29    1
    28    29    23    1
    29     7     1   ar
    30    18    14   ar
    31    12    13    1
    32    27    30    1
    33    27    31    1
@<TRIPOS>MOLECULE
*****
 31 33 0 0 0
SMALL
GASTEIGER

@<TRIPOS>ATOM
      1 C          62.7094   89.2469   11.1287 C.ar    1  UNL1        0.1681
      2 C          63.0681   88.4322   12.3359 C.ar    1  UNL1        0.0702
      3 C          63.7432   89.0833   13.5065 C.ar    1  UNL1        0.1620
      4 F          64.1020   88.2686   14.7138 F       1  UNL1       -0.2026
      5 C          64.0596   90.5491   13.4698 C.ar    1  UNL1        0.1549
      6 C          63.7009   91.3638   12.2625 C.ar    1  UNL1        0.0553
      7 C          63.0258   90.7127   11.0919 C.ar    1  UNL1        0.1753
      8 F          62.6671   91.5274    9.8846 F       1  UNL1       -0.2009
      9 S          64.7348   91.2002   14.6404 S.O2    1  UNL1        0.0773
     10 O          66.0594   91.0701   13.9488 O.2     1  UNL1       -0.1498
     11 O          63.4102   91.3303   15.3320 O.2     1  UNL1       -0.1498
     12 N          65.4099   91.8513   15.8110 N.pl3   1  UNL1       -0.1925
     13 H          64.9531   91.8928   16.6821 H       1  UNL1        0.1758
     14 C          66.7811   92.4391   15.6543 C.ar    1  UNL1        0.1977
     15 N          68.0319   91.9494   16.3220 N.ar    1  UNL1       -0.1997
     16 C          69.1659   92.8274   15.8827 C.ar    1  UNL1        0.2082
     17 N          68.6161   93.8597   14.9435 N.ar    1  UNL1       -0.1840
     18 S          67.1421   93.6197   14.8023 S.2     1  UNL1        0.0508
     19 O          62.0343   88.5958    9.9580 O.3     1  UNL1       -0.4731
     20 C          62.6227   87.3596    9.3452 C.3     1  UNL1        0.2055
     21 C          62.0019   86.0208    9.6139 C.3     1  UNL1        0.0473
     22 C          63.1508   85.0646    8.3956 C.3     1  UNL1        0.0001
     23 C          62.8740   84.8235    9.8500 C.3     1  UNL1        0.0037
     24 C          62.2944   84.9982   11.2224 C.3     1  UNL1        0.0015
     25 C          62.6830   84.0594   12.3258 C.3     1  UNL1        0.0155
     26 C          63.6513   82.9457   12.0567 C.3     1  UNL1        0.0508
     27 N          64.0399   82.0069   13.1602 N.3     1  UNL1       -0.3222
     28 C          64.2309   82.7710   10.6844 C.3     1  UNL1        0.0155
     29 C          63.8423   83.7099    9.5810 C.3     1  UNL1        0.0015
     30 H          63.5550   82.2710   14.0178 H       1  UNL1        0.1188
     31 H          65.0476   82.0570   13.3101 H       1  UNL1        0.1188
@<TRIPOS>BOND
     1    23    22    1
     2    23    21    1
     3    21    20    1
     4    20    19    1
     5    19     1    1
     6     1     2   ar
     7     2     3   ar
     8     3     4    1
     9     3     5   ar
    10     5     9    1
    11     9    10    2
    12     9    11    2
    13     9    12    1
    14    12    14    1
    15    14    15   ar
    16    15    16   ar
    17    16    17   ar
    18    17    18   ar
    19     5     6   ar
    20     6     7   ar
    21     7     8    1
    22    23    24    1
    23    24    25    1
    24    25    26    1
    25    26    27    1
    26    26    28    1
    27    28    29    1
    28    29    23    1
    29     7     1   ar
    30    18    14   ar
    31    12    13    1
    32    27    30    1
    33    27    31    1
@<TRIPOS>MOLECULE
*****
 31 33 0 0 0
SMALL
GASTEIGER

@<TRIPOS>ATOM
      1 C          64.2537   89.6324   14.0935 C.ar    1  UNL1        0.1681
      2 C          65.4828   90.1575   14.7745 C.ar    1  UNL1        0.0702
      3 C          66.1281   91.4209   14.2874 C.ar    1  UNL1        0.1620
      4 F          67.3573   91.9460   14.9684 F       1  UNL1       -0.2026
      5 C          65.5445   92.1592   13.1194 C.ar    1  UNL1        0.1549
      6 C          64.3155   91.6342   12.4385 C.ar    1  UNL1        0.0553
      7 C          63.6701   90.3708   12.9255 C.ar    1  UNL1        0.1753
      8 F          62.4409   89.8457   12.2446 F       1  UNL1       -0.2009
      9 S          66.1900   93.4227   12.6324 S.O2    1  UNL1        0.0773
     10 O          65.9352   94.0658   13.9634 O.2     1  UNL1       -0.1498
     11 O          66.4447   92.7796   11.3015 O.2     1  UNL1       -0.1498
     12 N          66.8354   94.6861   12.1455 N.pl3   1  UNL1       -0.1925
     13 H          67.2864   95.2857   12.7828 H       1  UNL1        0.1758
     14 C          66.7936   95.0359   10.6874 C.ar    1  UNL1        0.1977
     15 N          67.7614   94.5693    9.6406 N.ar    1  UNL1       -0.1997
     16 C          67.3425   95.1588    8.3264 C.ar    1  UNL1        0.2082
     17 N          66.1159   95.9897    8.5609 N.ar    1  UNL1       -0.1840
     18 S          65.7766   95.9137   10.0202 S.2     1  UNL1        0.0508
     19 O          63.6083   88.3689   14.5805 O.3     1  UNL1       -0.4731
     20 C          64.2755   87.0465   14.3442 C.3     1  UNL1        0.2055
     21 C          64.2476   85.9912   15.4099 C.3     1  UNL1        0.0473
     22 C          62.7983   85.2597   16.4506 C.3     1  UNL1        0.0001
     23 C          63.4492   84.7382   15.2038 C.3     1  UNL1        0.0037
     24 C          64.3773   84.6519   14.0286 C.3     1  UNL1        0.0015
     25 C          64.2810   83.4937   13.0803 C.3     1  UNL1        0.0155
     26 C          63.2566   82.4217   13.3073 C.3     1  UNL1        0.0508
     27 N          63.1603   81.2635   12.3590 N.3     1  UNL1       -0.3222
     28 C          62.3285   82.5080   14.4825 C.3     1  UNL1        0.0155
     29 C          62.4247   83.6662   15.4307 C.3     1  UNL1        0.0015
     30 H          63.8612   81.3658   11.6251 H       1  UNL1        0.1188
     31 H          62.2303   81.2431   11.9405 H       1  UNL1        0.1188
@<TRIPOS>BOND
     1    23    22    1
     2    23    21    1
     3    21    20    1
     4    20    19    1
     5    19     1    1
     6     1     2   ar
     7     2     3   ar
     8     3     4    1
     9     3     5   ar
    10     5     9    1
    11     9    10    2
    12     9    11    2
    13     9    12    1
    14    12    14    1
    15    14    15   ar
    16    15    16   ar
    17    16    17   ar
    18    17    18   ar
    19     5     6   ar
    20     6     7   ar
    21     7     8    1
    22    23    24    1
    23    24    25    1
    24    25    26    1
    25    26    27    1
    26    26    28    1
    27    28    29    1
    28    29    23    1
    29     7     1   ar
    30    18    14   ar
    31    12    13    1
    32    27    30    1
    33    27    31    1
@<TRIPOS>MOLECULE
*****
 31 33 0 0 0
SMALL
GASTEIGER

@<TRIPOS>ATOM
      1 C          63.5418   88.3708   16.1207 C.ar    1  UNL1        0.1681
      2 C          63.8701   87.9120   14.7308 C.ar    1  UNL1        0.0702
      3 C          63.8707   86.4479   14.4049 C.ar    1  UNL1        0.1620
      4 F          64.1990   85.9890   13.0150 F       1  UNL1       -0.2026
      5 C          63.5432   85.4425   15.4688 C.ar    1  UNL1        0.1549
      6 C          63.2149   85.9013   16.8587 C.ar    1  UNL1        0.0553
      7 C          63.2143   87.3654   17.1846 C.ar    1  UNL1        0.1753
      8 F          62.8860   87.8242   18.5745 F       1  UNL1       -0.2009
      9 S          63.5438   83.9783   15.1428 S.O2    1  UNL1        0.0773
     10 O          65.0414   83.9605   15.2262 O.2     1  UNL1       -0.1498
     11 O          62.0463   83.9961   15.0594 O.2     1  UNL1       -0.1498
     12 N          63.5446   82.5142   14.8169 N.pl3   1  UNL1       -0.1925
     13 H          63.6326   81.8494   15.5377 H       1  UNL1        0.1758
     14 C          63.4112   82.0628   13.3925 C.ar    1  UNL1        0.1977
     15 N          63.9989   82.7449   12.1928 N.ar    1  UNL1       -0.1997
     16 C          63.6177   81.9538   10.9768 C.ar    1  UNL1        0.2082
     17 N          62.7943   80.7827   11.4250 N.ar    1  UNL1       -0.1840
     18 S          62.6667   80.8502   12.9181 S.2     1  UNL1        0.0508
     19 O          63.5411   89.8350   16.4467 O.3     1  UNL1       -0.4731
     20 C          63.9136   90.8376   15.3951 C.3     1  UNL1        0.2055
     21 C          65.3349   90.9403   14.9266 C.3     1  UNL1        0.0473
     22 C          66.4072   92.4378   15.4977 C.3     1  UNL1        0.0001
     23 C          65.7873   92.1492   14.1626 C.3     1  UNL1        0.0037
     24 C          65.0103   91.4408   13.0929 C.3     1  UNL1        0.0015
     25 C          64.9009   92.0415   11.7228 C.3     1  UNL1        0.0155
     26 C          65.5686   93.3507   11.4224 C.3     1  UNL1        0.0508
     27 N          65.4593   93.9514   10.0523 N.3     1  UNL1       -0.3222
     28 C          66.3456   94.0591   12.4921 C.3     1  UNL1        0.0155
     29 C          66.4550   93.4585   13.8622 C.3     1  UNL1        0.0015
     30 H          64.8997   93.3407    9.4570 H       1  UNL1        0.1188
     31 H          66.3914   94.0559    9.6515 H       1  UNL1        0.1188
@<TRIPOS>BOND
     1    23    22    1
     2    23    21    1
     3    21    20    1
     4    20    19    1
     5    19     1    1
     6     1     2   ar
     7     2     3   ar
     8     3     4    1
     9     3     5   ar
    10     5     9    1
    11     9    10    2
    12     9    11    2
    13     9    12    1
    14    12    14    1
    15    14    15   ar
    16    15    16   ar
    17    16    17   ar
    18    17    18   ar
    19     5     6   ar
    20     6     7   ar
    21     7     8    1
    22    23    24    1
    23    24    25    1
    24    25    26    1
    25    26    27    1
    26    26    28    1
    27    28    29    1
    28    29    23    1
    29     7     1   ar
    30    18    14   ar
    31    12    13    1
    32    27    30    1
    33    27    31    1
@<TRIPOS>MOLECULE
*****
 31 33 0 0 0
SMALL
GASTEIGER

@<TRIPOS>ATOM
      1 C          63.4008   88.2164   16.4976 C.ar    1  UNL1        0.1681
      2 C          63.8131   87.8975   15.0911 C.ar    1  UNL1        0.0702
      3 C          63.8336   86.4736   14.6202 C.ar    1  UNL1        0.1620
      4 F          64.2460   86.1546   13.2136 F       1  UNL1       -0.2026
      5 C          63.4419   85.3685   15.5557 C.ar    1  UNL1        0.1549
      6 C          63.0295   85.6873   16.9622 C.ar    1  UNL1        0.0553
      7 C          63.0090   87.1113   17.4331 C.ar    1  UNL1        0.1753
      8 F          62.5967   87.4302   18.8397 F       1  UNL1       -0.2009
      9 S          63.4624   83.9444   15.0847 S.O2    1  UNL1        0.0773
     10 O          61.9669   83.9605   14.9709 O.2     1  UNL1       -0.1498
     11 O          64.9580   83.9283   15.1985 O.2     1  UNL1       -0.1498
     12 N          63.4829   82.5205   14.6137 N.pl3   1  UNL1       -0.1925
     13 H          63.4803   81.7853   15.2685 H       1  UNL1        0.1758
     14 C          63.5073   82.2165   13.1450 C.ar    1  UNL1        0.1977
     15 N          64.2157   83.0149   12.0911 N.ar    1  UNL1       -0.1997
     16 C          63.9738   82.3527   10.7671 C.ar    1  UNL1        0.2082
     17 N          63.1159   81.1449   11.0027 N.ar    1  UNL1       -0.1840
     18 S          62.8276   81.0608   12.4724 S.2     1  UNL1        0.0508
     19 O          63.3802   89.6404   16.9686 O.3     1  UNL1       -0.4731
     20 C          63.3724   90.7604   15.9708 C.3     1  UNL1        0.2055
     21 C          64.4574   91.7959   15.9971 C.3     1  UNL1        0.0473
     22 C          64.3792   91.2801   14.1406 C.3     1  UNL1        0.0001
     23 C          65.5361   91.7786   14.9550 C.3     1  UNL1        0.0037
     24 C          66.3183   92.2831   16.1313 C.3     1  UNL1        0.0015
     25 C          67.7775   92.5972   15.9826 C.3     1  UNL1        0.0155
     26 C          68.4544   92.4067   14.6577 C.3     1  UNL1        0.0508
     27 N          69.9136   92.7208   14.5090 N.3     1  UNL1       -0.3222
     28 C          67.6723   91.9023   13.4814 C.3     1  UNL1        0.0155
     29 C          66.2131   91.5882   13.6300 C.3     1  UNL1        0.0015
     30 H          70.2833   93.0492   15.4012 H       1  UNL1        0.1188
     31 H          70.0350   93.4467   13.8028 H       1  UNL1        0.1188
@<TRIPOS>BOND
     1    23    22    1
     2    23    21    1
     3    21    20    1
     4    20    19    1
     5    19     1    1
     6     1     2   ar
     7     2     3   ar
     8     3     4    1
     9     3     5   ar
    10     5     9    1
    11     9    10    2
    12     9    11    2
    13     9    12    1
    14    12    14    1
    15    14    15   ar
    16    15    16   ar
    17    16    17   ar
    18    17    18   ar
    19     5     6   ar
    20     6     7   ar
    21     7     8    1
    22    23    24    1
    23    24    25    1
    24    25    26    1
    25    26    27    1
    26    26    28    1
    27    28    29    1
    28    29    23    1
    29     7     1   ar
    30    18    14   ar
    31    12    13    1
    32    27    30    1
    33    27    31    1
@<TRIPOS>MOLECULE
*****
 31 33 0 0 0
SMALL
GASTEIGER

@<TRIPOS>ATOM
      1 C          62.4954   88.2071   11.8285 C.ar    1  UNL1        0.1681
      2 C          63.3768   88.2631   13.0408 C.ar    1  UNL1        0.0702
      3 C          64.1554   89.5086   13.3451 C.ar    1  UNL1        0.1620
      4 F          65.0369   89.5647   14.5575 F       1  UNL1       -0.2026
      5 C          64.0525   90.6980   12.4369 C.ar    1  UNL1        0.1549
      6 C          63.1711   90.6420   11.2246 C.ar    1  UNL1        0.0553
      7 C          62.3925   89.3965   10.9204 C.ar    1  UNL1        0.1753
      8 F          61.5110   89.3404    9.7080 F       1  UNL1       -0.2009
      9 S          64.8312   91.9435   12.7412 S.O2    1  UNL1        0.0773
     10 O          64.3964   91.8651   14.1747 O.2     1  UNL1       -0.1498
     11 O          65.2659   92.0220   11.3078 O.2     1  UNL1       -0.1498
     12 N          65.6097   93.1890   13.0455 N.pl3   1  UNL1       -0.1925
     13 H          65.2847   94.0625   12.7285 H       1  UNL1        0.1758
     14 C          66.8837   93.1035   13.8329 C.ar    1  UNL1        0.1977
     15 N          67.2255   93.9144   15.0476 N.ar    1  UNL1       -0.1997
     16 C          68.5925   93.5042   15.5092 C.ar    1  UNL1        0.2082
     17 N          69.0956   92.4397   14.5797 N.ar    1  UNL1       -0.1840
     18 S          68.0394   92.1921   13.5436 S.2     1  UNL1        0.0508
     19 O          61.7167   86.9616   11.5242 O.3     1  UNL1       -0.4731
     20 C          62.4043   85.6285   11.5241 C.3     1  UNL1        0.2055
     21 C          63.0978   85.1421   12.7621 C.3     1  UNL1        0.0473
     22 C          62.5844   84.5861   14.5358 C.3     1  UNL1        0.0001
     23 C          62.8055   83.7712   13.2960 C.3     1  UNL1        0.0037
     24 C          63.1280   83.4325   11.8709 C.3     1  UNL1        0.0015
     25 C          63.0814   82.0058   11.4101 C.3     1  UNL1        0.0155
     26 C          62.7124   80.9178   12.3746 C.3     1  UNL1        0.0508
     27 N          62.6658   79.4911   11.9138 N.3     1  UNL1       -0.3222
     28 C          62.3898   81.2565   13.7997 C.3     1  UNL1        0.0155
     29 C          62.4364   82.6833   14.2605 C.3     1  UNL1        0.0015
     30 H          62.9113   79.4450   10.9248 H       1  UNL1        0.1188
     31 H          61.7249   79.1209   12.0482 H       1  UNL1        0.1188
@<TRIPOS>BOND
     1    23    22    1
     2    23    21    1
     3    21    20    1
     4    20    19    1
     5    19     1    1
     6     1     2   ar
     7     2     3   ar
     8     3     4    1
     9     3     5   ar
    10     5     9    1
    11     9    10    2
    12     9    11    2
    13     9    12    1
    14    12    14    1
    15    14    15   ar
    16    15    16   ar
    17    16    17   ar
    18    17    18   ar
    19     5     6   ar
    20     6     7   ar
    21     7     8    1
    22    23    24    1
    23    24    25    1
    24    25    26    1
    25    26    27    1
    26    26    28    1
    27    28    29    1
    28    29    23    1
    29     7     1   ar
    30    18    14   ar
    31    12    13    1
    32    27    30    1
    33    27    31    1
