@<TRIPOS>MOLECULE
*****
 26 29 0 0 0
SMALL
GASTEIGER

@<TRIPOS>ATOM
      1 C          58.8484   87.9734    7.4353 C.3     1  UNL1        0.1538
      2 N          59.9642   87.7084    8.4021 N.ar    1  UNL1       -0.2461
      3 C          60.7455   88.7458    9.1527 C.ar    1  UNL1        0.1113
      4 C          61.7588   88.0379   10.0025 C.ar    1  UNL1        0.0891
      5 C          61.6038   86.5631    9.7771 C.ar    1  UNL1        0.1158
      6 N          60.4947   86.3594    8.7880 N.ar    1  UNL1       -0.1679
      7 C          62.4154   85.4817   10.4268 C.ar    1  UNL1        0.0215
      8 C          63.2424   84.5561    9.5846 C.ar    1  UNL1        0.0016
      9 C          64.0540   83.4748   10.2342 C.ar    1  UNL1        0.0009
     10 C          64.0386   83.3191   11.7261 C.ar    1  UNL1        0.0114
     11 C          63.2116   84.2448   12.5682 C.ar    1  UNL1        0.0577
     12 CL         63.1962   84.0891   14.0601 Cl      1  UNL1       -0.0822
     13 C          62.4000   85.3261   11.9186 C.ar    1  UNL1        0.0130
     14 N          62.7526   88.6904   10.9172 N.am    1  UNL1       -0.2778
     15 C          62.2770   89.4857   12.0967 C.2     1  UNL1        0.2541
     16 O          60.8075   89.6285   12.3616 O.2     1  UNL1       -0.2696
     17 H          63.7171   88.5967   10.7433 H       1  UNL1        0.1553
     18 C          63.2709   90.1382   13.0113 C.ar    1  UNL1        0.1102
     19 C          63.4601   89.8351   14.4680 C.ar    1  UNL1        0.1281
     20 N          64.5563   90.7179   14.9866 N.ar    1  UNL1       -0.1619
     21 N          65.0446   91.5667   13.8504 N.ar    1  UNL1       -0.2105
     22 C          66.1100   92.6195   13.7697 C.ar    1  UNL1        0.1037
     23 C          66.3810   93.3140   12.4681 C.ar    1  UNL1        0.0414
     24 C          65.5866   92.9558   11.2472 C.ar    1  UNL1        0.1022
     25 N          64.5212   91.9029   11.3279 N.ar    1  UNL1       -0.2248
     26 C          64.2502   91.2083   12.6295 C.ar    1  UNL1        0.1697
@<TRIPOS>BOND
     1     1     2    1
     2     2     3   ar
     3     3     4   ar
     4     4    14    1
     5    14    15   am
     6    15    16    2
     7    15    18    1
     8    18    19   ar
     9    19    20   ar
    10    20    21   ar
    11    21    22   ar
    12    22    23   ar
    13    23    24   ar
    14    24    25   ar
    15    25    26   ar
    16     4     5   ar
    17     5     7    1
    18     7     8   ar
    19     8     9   ar
    20     9    10   ar
    21    10    11   ar
    22    11    12    1
    23    11    13   ar
    24     5     6   ar
    25     6     2   ar
    26    26    18   ar
    27    13     7   ar
    28    26    21   ar
    29    14    17    1
@<TRIPOS>MOLECULE
*****
 26 29 0 0 0
SMALL
GASTEIGER

@<TRIPOS>ATOM
      1 C          58.9841   88.9744    6.9968 C.3     1  UNL1        0.1538
      2 N          59.9208   88.6423    8.1203 N.ar    1  UNL1       -0.2461
      3 C          60.2189   87.2683    8.6429 C.ar    1  UNL1        0.1113
      4 C          61.2062   87.4028    9.7641 C.ar    1  UNL1        0.0891
      5 C          61.5184   88.8601    9.9344 C.ar    1  UNL1        0.1158
      6 N          60.7240   89.6261    8.9185 N.ar    1  UNL1       -0.1679
      7 C          62.4597   89.4480   10.9435 C.ar    1  UNL1        0.0215
      8 C          62.9935   90.8366   10.7514 C.ar    1  UNL1        0.0016
      9 C          63.9348   91.4246   11.7605 C.ar    1  UNL1        0.0009
     10 C          64.3424   90.6239   12.9617 C.ar    1  UNL1        0.0114
     11 C          63.8086   89.2353   13.1538 C.ar    1  UNL1        0.0577
     12 CL         64.2161   88.4346   14.3550 Cl      1  UNL1       -0.0822
     13 C          62.8673   88.6474   12.1447 C.ar    1  UNL1        0.0130
     14 N          61.7805   86.2777   10.5729 N.am    1  UNL1       -0.2778
     15 C          62.7274   85.3037    9.9366 C.2     1  UNL1        0.2541
     16 O          63.0999   85.4548    8.4915 O.2     1  UNL1       -0.2696
     17 H          61.5360   86.1785   11.5214 H       1  UNL1        0.1553
     18 C          63.3017   84.1786   10.7455 C.ar    1  UNL1        0.1102
     19 C          64.1409   83.0526   10.2185 C.ar    1  UNL1        0.1281
     20 N          64.4954   82.1601   11.3708 N.ar    1  UNL1       -0.1619
     21 N          63.8753   82.7344   12.6099 N.ar    1  UNL1       -0.2105
     22 C          63.8870   82.2826   14.0402 C.ar    1  UNL1        0.1037
     23 C          63.1610   83.0784   15.0841 C.ar    1  UNL1        0.0414
     24 C          62.4232   84.3259   14.6977 C.ar    1  UNL1        0.1022
     25 N          62.4114   84.7777   13.2673 N.ar    1  UNL1       -0.2248
     26 C          63.1374   83.9820   12.2234 C.ar    1  UNL1        0.1697
@<TRIPOS>BOND
     1     1     2    1
     2     2     3   ar
     3     3     4   ar
     4     4    14    1
     5    14    15   am
     6    15    16    2
     7    15    18    1
     8    18    19   ar
     9    19    20   ar
    10    20    21   ar
    11    21    22   ar
    12    22    23   ar
    13    23    24   ar
    14    24    25   ar
    15    25    26   ar
    16     4     5   ar
    17     5     7    1
    18     7     8   ar
    19     8     9   ar
    20     9    10   ar
    21    10    11   ar
    22    11    12    1
    23    11    13   ar
    24     5     6   ar
    25     6     2   ar
    26    26    18   ar
    27    13     7   ar
    28    26    21   ar
    29    14    17    1
@<TRIPOS>MOLECULE
*****
 26 29 0 0 0
SMALL
GASTEIGER

@<TRIPOS>ATOM
      1 C          59.0043   87.3189    7.6297 C.3     1  UNL1        0.1538
      2 N          60.0383   87.2104    8.7109 N.ar    1  UNL1       -0.2461
      3 C          60.5530   88.3384    9.5551 C.ar    1  UNL1        0.1113
      4 C          61.5720   87.7800   10.5037 C.ar    1  UNL1        0.0891
      5 C          61.6871   86.3068   10.2458 C.ar    1  UNL1        0.1158
      6 N          60.7392   85.9548    9.1378 N.ar    1  UNL1       -0.1679
      7 C          62.5913   85.3531   10.9689 C.ar    1  UNL1        0.0215
      8 C          63.3219   84.2879   10.2062 C.ar    1  UNL1        0.0016
      9 C          64.2261   83.3342   10.9294 C.ar    1  UNL1        0.0009
     10 C          64.3996   83.4457   12.4152 C.ar    1  UNL1        0.0114
     11 C          63.6690   84.5109   13.1778 C.ar    1  UNL1        0.0577
     12 CL         63.8426   84.6224   14.6636 Cl      1  UNL1       -0.0822
     13 C          62.7649   85.4646   12.4546 C.ar    1  UNL1        0.0130
     14 N          62.3409   88.5581   11.5300 N.am    1  UNL1       -0.2778
     15 C          62.8772   89.9179   11.1933 C.2     1  UNL1        0.2541
     16 O          62.6447   90.4996    9.8304 O.2     1  UNL1       -0.2696
     17 H          62.4936   88.1764   12.4245 H       1  UNL1        0.1553
     18 C          63.6461   90.6960   12.2197 C.ar    1  UNL1        0.1102
     19 C          64.6540   91.7707   11.9385 C.ar    1  UNL1        0.1281
     20 N          65.1729   92.2748   13.2526 N.ar    1  UNL1       -0.1619
     21 N          64.4857   91.5117   14.3459 N.ar    1  UNL1       -0.2105
     22 C          64.5972   91.5793   15.8402 C.ar    1  UNL1        0.1037
     23 C          63.7651   90.6711   16.6962 C.ar    1  UNL1        0.0414
     24 C          62.8215   89.6953   16.0579 C.ar    1  UNL1        0.1022
     25 N          62.7099   89.6277   14.5635 N.ar    1  UNL1       -0.2248
     26 C          63.5420   90.5359   13.7075 C.ar    1  UNL1        0.1697
@<TRIPOS>BOND
     1     1     2    1
     2     2     3   ar
     3     3     4   ar
     4     4    14    1
     5    14    15   am
     6    15    16    2
     7    15    18    1
     8    18    19   ar
     9    19    20   ar
    10    20    21   ar
    11    21    22   ar
    12    22    23   ar
    13    23    24   ar
    14    24    25   ar
    15    25    26   ar
    16     4     5   ar
    17     5     7    1
    18     7     8   ar
    19     8     9   ar
    20     9    10   ar
    21    10    11   ar
    22    11    12    1
    23    11    13   ar
    24     5     6   ar
    25     6     2   ar
    26    26    18   ar
    27    13     7   ar
    28    26    21   ar
    29    14    17    1
@<TRIPOS>MOLECULE
*****
 26 29 0 0 0
SMALL
GASTEIGER

@<TRIPOS>ATOM
      1 C          59.0043   88.2346    7.4009 C.3     1  UNL1        0.1538
      2 N          59.9438   88.2671    8.5698 N.ar    1  UNL1       -0.2461
      3 C          60.1717   87.1539    9.5490 C.ar    1  UNL1        0.1113
      4 C          61.1891   87.6173   10.5491 C.ar    1  UNL1        0.0891
      5 C          61.5901   89.0169   10.1879 C.ar    1  UNL1        0.1158
      6 N          60.8204   89.4184    8.9646 N.ar    1  UNL1       -0.1679
      7 C          62.5858   89.8658   10.9212 C.ar    1  UNL1        0.0215
      8 C          63.2209   91.0388   10.2350 C.ar    1  UNL1        0.0016
      9 C          64.2167   91.8878   10.9684 C.ar    1  UNL1        0.0009
     10 C          64.5773   91.5637   12.3879 C.ar    1  UNL1        0.0114
     11 C          63.9422   90.3908   13.0740 C.ar    1  UNL1        0.0577
     12 CL         64.3029   90.0667   14.4936 Cl      1  UNL1       -0.0822
     13 C          62.9465   89.5418   12.3407 C.ar    1  UNL1        0.0130
     14 N          61.7135   86.8210   11.7070 N.am    1  UNL1       -0.2778
     15 C          62.5232   85.5826   11.4602 C.2     1  UNL1        0.2541
     16 O          62.8085   85.1406   10.0555 O.2     1  UNL1       -0.2696
     17 H          61.5263   87.1110   12.6290 H       1  UNL1        0.1553
     18 C          63.0476   84.7863   12.6182 C.ar    1  UNL1        0.1102
     19 C          63.7041   85.3436   13.8463 C.ar    1  UNL1        0.1281
     20 N          64.0697   84.1945   14.7384 N.ar    1  UNL1       -0.1619
     21 N          63.6392   82.9270   14.0618 N.ar    1  UNL1       -0.2105
     22 C          63.7408   81.4871   14.4694 C.ar    1  UNL1        0.1037
     23 C          63.2106   80.4128   13.5667 C.ar    1  UNL1        0.0414
     24 C          62.5788   80.7785   12.2563 C.ar    1  UNL1        0.1022
     25 N          62.4773   82.2185   11.8486 N.ar    1  UNL1       -0.2248
     26 C          63.0074   83.2927   12.7513 C.ar    1  UNL1        0.1697
@<TRIPOS>BOND
     1     1     2    1
     2     2     3   ar
     3     3     4   ar
     4     4    14    1
     5    14    15   am
     6    15    16    2
     7    15    18    1
     8    18    19   ar
     9    19    20   ar
    10    20    21   ar
    11    21    22   ar
    12    22    23   ar
    13    23    24   ar
    14    24    25   ar
    15    25    26   ar
    16     4     5   ar
    17     5     7    1
    18     7     8   ar
    19     8     9   ar
    20     9    10   ar
    21    10    11   ar
    22    11    12    1
    23    11    13   ar
    24     5     6   ar
    25     6     2   ar
    26    26    18   ar
    27    13     7   ar
    28    26    21   ar
    29    14    17    1
@<TRIPOS>MOLECULE
*****
 26 29 0 0 0
SMALL
GASTEIGER

@<TRIPOS>ATOM
      1 C          64.0384   80.5558   13.9889 C.3     1  UNL1        0.1538
      2 N          63.6347   81.9990   13.9231 N.ar    1  UNL1       -0.2461
      3 C          62.8965   82.6575   12.7955 C.ar    1  UNL1        0.1113
      4 C          62.7038   84.1024   13.1489 C.ar    1  UNL1        0.0891
      5 C          63.3229   84.3370   14.4949 C.ar    1  UNL1        0.1158
      6 N          63.8982   83.0370   14.9733 N.ar    1  UNL1       -0.1679
      7 C          63.3602   85.6424   15.2328 C.ar    1  UNL1        0.0215
      8 C          62.7808   85.7406   16.6130 C.ar    1  UNL1        0.0016
      9 C          62.8180   87.0460   17.3509 C.ar    1  UNL1        0.0009
     10 C          63.4347   88.2532   16.7087 C.ar    1  UNL1        0.0114
     11 C          64.0141   88.1550   15.3286 C.ar    1  UNL1        0.0577
     12 CL         64.6308   89.3623   14.6864 Cl      1  UNL1       -0.0822
     13 C          63.9768   86.8496   14.5907 C.ar    1  UNL1        0.0130
     14 N          62.0133   85.1321   12.3045 N.am    1  UNL1       -0.2778
     15 C          62.3025   85.2135   10.8349 C.2     1  UNL1        0.2541
     16 O          63.2822   84.2653   10.2096 O.2     1  UNL1       -0.2696
     17 H          61.3702   85.7545   12.7149 H       1  UNL1        0.1553
     18 C          61.6118   86.2432    9.9906 C.ar    1  UNL1        0.1102
     19 C          61.1831   86.0700    8.5637 C.ar    1  UNL1        0.1281
     20 N          60.5350   87.3467    8.1163 N.ar    1  UNL1       -0.1619
     21 N          60.5632   88.3089    9.2666 N.ar    1  UNL1       -0.2105
     22 C          60.0689   89.7179    9.4090 C.ar    1  UNL1        0.1037
     23 C          60.2401   90.4449   10.7098 C.ar    1  UNL1        0.0414
     24 C          60.9056   89.7630   11.8682 C.ar    1  UNL1        0.1022
     25 N          61.4000   88.3539   11.7259 N.ar    1  UNL1       -0.2248
     26 C          61.2288   87.6268   10.4251 C.ar    1  UNL1        0.1697
@<TRIPOS>BOND
     1     1     2    1
     2     2     3   ar
     3     3     4   ar
     4     4    14    1
     5    14    15   am
     6    15    16    2
     7    15    18    1
     8    18    19   ar
     9    19    20   ar
    10    20    21   ar
    11    21    22   ar
    12    22    23   ar
    13    23    24   ar
    14    24    25   ar
    15    25    26   ar
    16     4     5   ar
    17     5     7    1
    18     7     8   ar
    19     8     9   ar
    20     9    10   ar
    21    10    11   ar
    22    11    12    1
    23    11    13   ar
    24     5     6   ar
    25     6     2   ar
    26    26    18   ar
    27    13     7   ar
    28    26    21   ar
    29    14    17    1
@<TRIPOS>MOLECULE
*****
 26 29 0 0 0
SMALL
GASTEIGER

@<TRIPOS>ATOM
      1 C          59.5742   87.7191    8.7854 C.3     1  UNL1        0.1538
      2 N          60.6725   87.8938    9.7920 N.ar    1  UNL1       -0.2461
      3 C          61.4464   89.1541   10.0428 C.ar    1  UNL1        0.1113
      4 C          62.4419   88.8781   11.1303 C.ar    1  UNL1        0.0891
      5 C          62.2834   87.4472   11.5517 C.ar    1  UNL1        0.1158
      6 N          61.1898   86.8390   10.7246 N.ar    1  UNL1       -0.1679
      7 C          63.0787   86.7476   12.6137 C.ar    1  UNL1        0.0215
      8 C          63.8258   87.5467   13.6400 C.ar    1  UNL1        0.0016
      9 C          64.6212   86.8470   14.7020 C.ar    1  UNL1        0.0009
     10 C          64.6693   85.3482   14.7377 C.ar    1  UNL1        0.0114
     11 C          63.9222   84.5491   13.7115 C.ar    1  UNL1        0.0577
     12 CL         63.9704   83.0502   13.7472 Cl      1  UNL1       -0.0822
     13 C          63.1269   85.2488   12.6495 C.ar    1  UNL1        0.0130
     14 N          63.4236   89.8605   11.6970 N.am    1  UNL1       -0.2778
     15 C          63.7183   91.1348   10.9626 C.2     1  UNL1        0.2541
     16 O          63.0314   91.4267    9.6616 O.2     1  UNL1       -0.2696
     17 H          63.8745   89.6689   12.5510 H       1  UNL1        0.1553
     18 C          64.7001   92.1171   11.5294 C.ar    1  UNL1        0.1102
     19 C          65.4168   93.1891   10.7633 C.ar    1  UNL1        0.1281
     20 N          66.2971   93.9344   11.7223 N.ar    1  UNL1       -0.1619
     21 N          66.1245   93.3230   13.0811 N.ar    1  UNL1       -0.2105
     22 C          66.7385   93.6439   14.4115 C.ar    1  UNL1        0.1037
     23 C          66.3654   92.8416   15.6227 C.ar    1  UNL1        0.0414
     24 C          65.3784   91.7184   15.5036 C.ar    1  UNL1        0.1022
     25 N          64.7643   91.3975   14.1731 N.ar    1  UNL1       -0.2248
     26 C          65.1374   92.1998   12.9618 C.ar    1  UNL1        0.1697
@<TRIPOS>BOND
     1     1     2    1
     2     2     3   ar
     3     3     4   ar
     4     4    14    1
     5    14    15   am
     6    15    16    2
     7    15    18    1
     8    18    19   ar
     9    19    20   ar
    10    20    21   ar
    11    21    22   ar
    12    22    23   ar
    13    23    24   ar
    14    24    25   ar
    15    25    26   ar
    16     4     5   ar
    17     5     7    1
    18     7     8   ar
    19     8     9   ar
    20     9    10   ar
    21    10    11   ar
    22    11    12    1
    23    11    13   ar
    24     5     6   ar
    25     6     2   ar
    26    26    18   ar
    27    13     7   ar
    28    26    21   ar
    29    14    17    1
@<TRIPOS>MOLECULE
*****
 26 29 0 0 0
SMALL
GASTEIGER

@<TRIPOS>ATOM
      1 C          64.3282   81.2392   13.4789 C.3     1  UNL1        0.1538
      2 N          63.9870   82.6880   13.6651 N.ar    1  UNL1       -0.2461
      3 C          63.6640   83.6650   12.5737 C.ar    1  UNL1        0.1113
      4 C          63.3863   84.9950   13.2094 C.ar    1  UNL1        0.0891
      5 C          63.5377   84.8399   14.6937 C.ar    1  UNL1        0.1158
      6 N          63.9090   83.4142   14.9753 N.ar    1  UNL1       -0.1679
      7 C          63.3508   85.9209   15.7167 C.ar    1  UNL1        0.0215
      8 C          62.8994   85.5708   17.1037 C.ar    1  UNL1        0.0016
      9 C          62.7124   86.6518   18.1268 C.ar    1  UNL1        0.0009
     10 C          62.9768   88.0828   17.7628 C.ar    1  UNL1        0.0114
     11 C          63.4282   88.4328   16.3758 C.ar    1  UNL1        0.0577
     12 CL         63.6926   89.8638   16.0118 Cl      1  UNL1       -0.0822
     13 C          63.6151   87.3518   15.3528 C.ar    1  UNL1        0.0130
     14 N          63.0213   86.2582   12.4876 N.am    1  UNL1       -0.2778
     15 C          62.1761   86.1973   11.2499 C.2     1  UNL1        0.2541
     16 O          61.6959   84.8732   10.7339 O.2     1  UNL1       -0.2696
     17 H          63.3364   87.1272   12.8262 H       1  UNL1        0.1553
     18 C          61.8111   87.4605   10.5281 C.ar    1  UNL1        0.1102
     19 C          62.3726   88.8247   10.7993 C.ar    1  UNL1        0.1281
     20 N          61.7290   89.7886    9.8471 N.ar    1  UNL1       -0.1619
     21 N          60.7696   89.0202    8.9874 N.ar    1  UNL1       -0.2105
     22 C          59.8564   89.4448    7.8758 C.ar    1  UNL1        0.1037
     23 C          58.9939   88.4305    7.1849 C.ar    1  UNL1        0.0414
     24 C          59.0446   86.9916    7.6057 C.ar    1  UNL1        0.1022
     25 N          59.9579   86.5670    8.7174 N.ar    1  UNL1       -0.2248
     26 C          60.8204   87.5813    9.4083 C.ar    1  UNL1        0.1697
@<TRIPOS>BOND
     1     1     2    1
     2     2     3   ar
     3     3     4   ar
     4     4    14    1
     5    14    15   am
     6    15    16    2
     7    15    18    1
     8    18    19   ar
     9    19    20   ar
    10    20    21   ar
    11    21    22   ar
    12    22    23   ar
    13    23    24   ar
    14    24    25   ar
    15    25    26   ar
    16     4     5   ar
    17     5     7    1
    18     7     8   ar
    19     8     9   ar
    20     9    10   ar
    21    10    11   ar
    22    11    12    1
    23    11    13   ar
    24     5     6   ar
    25     6     2   ar
    26    26    18   ar
    27    13     7   ar
    28    26    21   ar
    29    14    17    1
