@<TRIPOS>MOLECULE
*****
 33 36 0 0 0
SMALL
GASTEIGER

@<TRIPOS>ATOM
      1 N          62.8561   90.8116   11.6620 N.am    1  UNL1       -0.2438
      2 C          63.3311   91.4650   10.3981 C.3     1  UNL1        0.1009
      3 C          64.4948   92.4107   10.4343 C.3     1  UNL1        0.0662
      4 C          65.1836   92.7031   11.7344 C.3     1  UNL1        0.1602
      5 O          64.7085   92.0497   12.9983 O.3     1  UNL1       -0.4374
      6 C          63.5448   91.1039   12.9621 C.2     1  UNL1        0.4051
      7 O          63.0698   90.4505   14.2260 O.2     1  UNL1       -0.2262
      8 C          65.9957   93.5616   10.8105 C.ar    1  UNL1        0.0140
      9 C          65.6786   95.0209   10.6701 C.ar    1  UNL1        0.0014
     10 C          66.4908   95.8794    9.7463 C.ar    1  UNL1        0.0294
     11 C          67.6200   95.2785    8.9630 C.ar    1  UNL1        0.1401
     12 F          68.4322   96.1370    8.0392 F       1  UNL1       -0.2042
     13 C          67.9372   93.8191    9.1034 C.ar    1  UNL1        0.0294
     14 C          67.1250   92.9606   10.0272 C.ar    1  UNL1        0.0014
     15 C          60.2916   90.4012   11.5928 C.3     1  UNL1        0.0265
     16 C          61.6924   89.8658   11.6258 C.3     1  UNL1        0.1011
     17 C          61.9295   88.3847   11.6226 C.ar    1  UNL1       -0.0042
     18 C          63.0324   87.7999   12.4542 C.ar    1  UNL1       -0.0027
     19 C          63.2695   86.3188   12.4509 C.ar    1  UNL1       -0.0003
     20 C          62.4036   85.4224   11.6161 C.ar    1  UNL1       -0.0000
     21 C          61.3007   86.0072   10.7845 C.ar    1  UNL1       -0.0003
     22 C          61.0637   87.4883   10.7878 C.ar    1  UNL1       -0.0027
     23 C          62.6408   83.9412   11.6129 C.ar    1  UNL1        0.0001
     24 C          63.3492   83.2976   10.4580 C.ar    1  UNL1        0.0023
     25 C          63.5864   81.8164   10.4548 C.ar    1  UNL1        0.0296
     26 C          63.1150   80.9789   11.6065 C.ar    1  UNL1        0.1401
     27 F          63.3520   79.4978   11.6033 F       1  UNL1       -0.2042
     28 C          62.4064   81.6226   12.7614 C.ar    1  UNL1        0.0296
     29 C          62.1694   83.1038   12.7646 C.ar    1  UNL1        0.0023
     30 C          66.1544   93.2936   12.7136 C.3     1  UNL1        0.0762
     31 C          66.3851   92.6255   14.0366 C.3     1  UNL1        0.1411
     32 O          65.7723   93.1951   15.2816 O.3     1  UNL1       -0.3819
     33 H          66.1645   94.0627   15.4673 H       1  UNL1        0.2104
@<TRIPOS>BOND
     1    16    15    1
     2    16    17    1
     3    17    18   ar
     4    18    19   ar
     5    19    20   ar
     6    20    23    1
     7    23    24   ar
     8    24    25   ar
     9    25    26   ar
    10    26    27    1
    11    26    28   ar
    12    28    29   ar
    13    20    21   ar
    14    21    22   ar
    15    16     1    1
    16     1     2    1
    17     2     3    1
    18     3     4    1
    19     4    30    1
    20    30    31    1
    21    31    32    1
    22     4     8    1
    23     8     9   ar
    24     9    10   ar
    25    10    11   ar
    26    11    12    1
    27    11    13   ar
    28    13    14   ar
    29     4     5    1
    30     5     6    1
    31     6     7    2
    32    22    17   ar
    33     6     1   am
    34    29    23   ar
    35    14     8   ar
    36    32    33    1
@<TRIPOS>MOLECULE
*****
 33 36 0 0 0
SMALL
GASTEIGER

@<TRIPOS>ATOM
      1 N          63.2905   90.3185   12.0331 N.am    1  UNL1       -0.2438
      2 C          64.0109   90.2112   13.3444 C.3     1  UNL1        0.1009
      3 C          65.2115   91.0693   13.6130 C.3     1  UNL1        0.0662
      4 C          65.6917   92.0348   12.5704 C.3     1  UNL1        0.1602
      5 O          64.9713   92.1421   11.2590 O.3     1  UNL1       -0.4374
      6 C          63.7707   91.2840   10.9904 C.2     1  UNL1        0.4051
      7 O          63.0504   91.3913    9.6791 O.2     1  UNL1       -0.2262
      8 C          66.7006   92.2940   13.6498 C.ar    1  UNL1        0.0140
      9 C          68.1503   91.9932   13.4093 C.ar    1  UNL1        0.0014
     10 C          69.1591   92.2525   14.4887 C.ar    1  UNL1        0.0294
     11 C          68.7182   92.8125   15.8085 C.ar    1  UNL1        0.1401
     12 F          69.7270   93.0717   16.8879 F       1  UNL1       -0.2042
     13 C          67.2684   93.1133   16.0490 C.ar    1  UNL1        0.0294
     14 C          66.2596   92.8541   14.9696 C.ar    1  UNL1        0.0014
     15 C          60.7576   90.0964   11.4992 C.3     1  UNL1        0.0265
     16 C          62.0899   89.4603   11.7645 C.3     1  UNL1        0.1011
     17 C          62.2217   87.9661   11.7612 C.ar    1  UNL1       -0.0042
     18 C          61.4192   87.1446   10.7962 C.ar    1  UNL1       -0.0027
     19 C          61.5510   85.6504   10.7929 C.ar    1  UNL1       -0.0003
     20 C          62.4852   84.9778   11.7546 C.ar    1  UNL1       -0.0000
     21 C          63.2877   85.7993   12.7195 C.ar    1  UNL1       -0.0003
     22 C          63.1559   87.2934   12.7228 C.ar    1  UNL1       -0.0027
     23 C          62.6170   83.4835   11.7512 C.ar    1  UNL1        0.0001
     24 C          63.1158   82.7773   10.5255 C.ar    1  UNL1        0.0023
     25 C          63.2475   81.2831   10.5222 C.ar    1  UNL1        0.0296
     26 C          62.8805   80.4951   11.7446 C.ar    1  UNL1        0.1401
     27 F          63.0122   79.0009   11.7413 F       1  UNL1       -0.2042
     28 C          62.3816   81.2014   12.9704 C.ar    1  UNL1        0.0296
     29 C          62.2499   82.6955   12.9737 C.ar    1  UNL1        0.0023
     30 C          66.5223   93.0903   11.9025 C.3     1  UNL1        0.0762
     31 C          65.8561   94.2368   11.2013 C.3     1  UNL1        0.1411
     32 O          65.8777   94.3145    9.7035 O.3     1  UNL1       -0.3819
     33 H          66.7894   94.4462    9.3997 H       1  UNL1        0.2104
@<TRIPOS>BOND
     1    16    15    1
     2    16    17    1
     3    17    18   ar
     4    18    19   ar
     5    19    20   ar
     6    20    23    1
     7    23    24   ar
     8    24    25   ar
     9    25    26   ar
    10    26    27    1
    11    26    28   ar
    12    28    29   ar
    13    20    21   ar
    14    21    22   ar
    15    16     1    1
    16     1     2    1
    17     2     3    1
    18     3     4    1
    19     4    30    1
    20    30    31    1
    21    31    32    1
    22     4     8    1
    23     8     9   ar
    24     9    10   ar
    25    10    11   ar
    26    11    12    1
    27    11    13   ar
    28    13    14   ar
    29     4     5    1
    30     5     6    1
    31     6     7    2
    32    22    17   ar
    33     6     1   am
    34    29    23   ar
    35    14     8   ar
    36    32    33    1
@<TRIPOS>MOLECULE
*****
 33 36 0 0 0
SMALL
GASTEIGER

@<TRIPOS>ATOM
      1 N          62.5613   87.9227   12.4798 N.am    1  UNL1       -0.2438
      2 C          62.1491   86.8742   11.4894 C.3     1  UNL1        0.1009
      3 C          62.6500   85.4677   11.6339 C.3     1  UNL1        0.0662
      4 C          63.5632   85.1097   12.7687 C.3     1  UNL1        0.1602
      5 O          63.9755   86.1582   13.7591 O.3     1  UNL1       -0.4374
      6 C          63.4746   87.5646   13.6147 C.2     1  UNL1        0.4051
      7 O          63.8868   88.6131   14.6050 O.2     1  UNL1       -0.2262
      8 C          63.4550   83.7760   12.0907 C.ar    1  UNL1        0.0140
      9 C          64.0236   83.5854   10.7158 C.ar    1  UNL1        0.0014
     10 C          63.9154   82.2517   10.0378 C.ar    1  UNL1        0.0294
     11 C          63.2387   81.1088   10.7348 C.ar    1  UNL1        0.1401
     12 F          63.1306   79.7751   10.0568 F       1  UNL1       -0.2042
     13 C          62.6701   81.2994   12.1097 C.ar    1  UNL1        0.0294
     14 C          62.7783   82.6331   12.7877 C.ar    1  UNL1        0.0014
     15 C          60.6416   89.6603   12.6920 C.3     1  UNL1        0.0265
     16 C          62.0604   89.3291   12.3353 C.3     1  UNL1        0.1011
     17 C          62.9783   90.4045   11.8340 C.ar    1  UNL1       -0.0042
     18 C          62.9198   90.8309   10.3971 C.ar    1  UNL1       -0.0027
     19 C          63.8377   91.9061    9.8959 C.ar    1  UNL1       -0.0003
     20 C          64.8141   92.5549   10.8316 C.ar    1  UNL1       -0.0000
     21 C          64.8727   92.1285   12.2685 C.ar    1  UNL1       -0.0003
     22 C          63.9548   91.0533   12.7697 C.ar    1  UNL1       -0.0027
     23 C          65.7321   93.6303   10.3304 C.ar    1  UNL1        0.0001
     24 C          65.3409   95.0722   10.4629 C.ar    1  UNL1        0.0023
     25 C          66.2588   96.1475    9.9617 C.ar    1  UNL1        0.0296
     26 C          67.5679   95.7808    9.3278 C.ar    1  UNL1        0.1401
     27 F          68.4858   96.8560    8.8266 F       1  UNL1       -0.2042
     28 C          67.9591   94.3387    9.1953 C.ar    1  UNL1        0.0296
     29 C          67.0412   93.2635    9.6965 C.ar    1  UNL1        0.0023
     30 C          64.4389   84.2885   13.6681 C.3     1  UNL1        0.0762
     31 C          65.3193   84.9632   14.6779 C.3     1  UNL1        0.1411
     32 O          66.8113   84.8727   14.5516 O.3     1  UNL1       -0.3819
     33 H          67.0915   83.9530   14.6806 H       1  UNL1        0.2104
@<TRIPOS>BOND
     1    16    15    1
     2    16    17    1
     3    17    18   ar
     4    18    19   ar
     5    19    20   ar
     6    20    23    1
     7    23    24   ar
     8    24    25   ar
     9    25    26   ar
    10    26    27    1
    11    26    28   ar
    12    28    29   ar
    13    20    21   ar
    14    21    22   ar
    15    16     1    1
    16     1     2    1
    17     2     3    1
    18     3     4    1
    19     4    30    1
    20    30    31    1
    21    31    32    1
    22     4     8    1
    23     8     9   ar
    24     9    10   ar
    25    10    11   ar
    26    11    12    1
    27    11    13   ar
    28    13    14   ar
    29     4     5    1
    30     5     6    1
    31     6     7    2
    32    22    17   ar
    33     6     1   am
    34    29    23   ar
    35    14     8   ar
    36    32    33    1
@<TRIPOS>MOLECULE
*****
 33 36 0 0 0
SMALL
GASTEIGER

@<TRIPOS>ATOM
      1 N          62.0584   88.6561   11.0636 N.am    1  UNL1       -0.2438
      2 C          62.6239   87.5936   11.9587 C.3     1  UNL1        0.1009
      3 C          62.6787   86.1696   11.4905 C.3     1  UNL1        0.0662
      4 C          62.1680   85.8081   10.1273 C.3     1  UNL1        0.1602
      5 O          61.6024   86.8706    9.2322 O.3     1  UNL1       -0.4374
      6 C          61.5476   88.2946    9.7003 C.2     1  UNL1        0.4051
      7 O          60.9820   89.3571    8.8053 O.2     1  UNL1       -0.2262
      8 C          62.6094   84.4570   10.6068 C.ar    1  UNL1        0.0140
      9 C          62.0957   83.9187   11.9092 C.ar    1  UNL1        0.0014
     10 C          62.5371   82.5676   12.3886 C.ar    1  UNL1        0.0294
     11 C          63.4923   81.7550   11.5657 C.ar    1  UNL1        0.1401
     12 F          63.9337   80.4040   12.0451 F       1  UNL1       -0.2042
     13 C          64.0061   82.2934   10.2633 C.ar    1  UNL1        0.0294
     14 C          63.5646   83.6444    9.7838 C.ar    1  UNL1        0.0014
     15 C          60.7871   90.9136   11.2571 C.3     1  UNL1        0.0265
     16 C          62.0035   90.0801   11.5318 C.3     1  UNL1        0.1011
     17 C          63.1652   90.6706   12.2748 C.ar    1  UNL1       -0.0042
     18 C          63.3711   90.3465   13.7248 C.ar    1  UNL1       -0.0027
     19 C          64.5327   90.9370   14.4676 C.ar    1  UNL1       -0.0003
     20 C          65.4885   91.8515   13.7605 C.ar    1  UNL1       -0.0000
     21 C          65.2827   92.1756   12.3105 C.ar    1  UNL1       -0.0003
     22 C          64.1210   91.5851   11.5676 C.ar    1  UNL1       -0.0027
     23 C          66.6502   92.4420   14.5035 C.ar    1  UNL1        0.0001
     24 C          66.8992   93.9203   14.4534 C.ar    1  UNL1        0.0023
     25 C          68.0609   94.5108   15.1963 C.ar    1  UNL1        0.0296
     26 C          68.9735   93.6229   15.9893 C.ar    1  UNL1        0.1401
     27 F          70.1351   94.2133   16.7323 F       1  UNL1       -0.2042
     28 C          68.7244   92.1445   16.0394 C.ar    1  UNL1        0.0296
     29 C          67.5628   91.5541   15.2964 C.ar    1  UNL1        0.0023
     30 C          61.8106   84.9773    8.9306 C.3     1  UNL1        0.0762
     31 C          61.2948   85.6375    7.6863 C.3     1  UNL1        0.1411
     32 O          59.8341   85.5701    7.3519 O.3     1  UNL1       -0.3819
     33 H          59.5879   84.6513    7.1621 H       1  UNL1        0.2104
@<TRIPOS>BOND
     1    16    15    1
     2    16    17    1
     3    17    18   ar
     4    18    19   ar
     5    19    20   ar
     6    20    23    1
     7    23    24   ar
     8    24    25   ar
     9    25    26   ar
    10    26    27    1
    11    26    28   ar
    12    28    29   ar
    13    20    21   ar
    14    21    22   ar
    15    16     1    1
    16     1     2    1
    17     2     3    1
    18     3     4    1
    19     4    30    1
    20    30    31    1
    21    31    32    1
    22     4     8    1
    23     8     9   ar
    24     9    10   ar
    25    10    11   ar
    26    11    12    1
    27    11    13   ar
    28    13    14   ar
    29     4     5    1
    30     5     6    1
    31     6     7    2
    32    22    17   ar
    33     6     1   am
    34    29    23   ar
    35    14     8   ar
    36    32    33    1
@<TRIPOS>MOLECULE
*****
 33 36 0 0 0
SMALL
GASTEIGER

@<TRIPOS>ATOM
      1 N          62.0475   88.0599   11.1622 N.am    1  UNL1       -0.2438
      2 C          61.5702   88.0971    9.7407 C.3     1  UNL1        0.1009
      3 C          61.7655   86.9042    8.8525 C.3     1  UNL1        0.0662
      4 C          62.4382   85.6742    9.3858 C.3     1  UNL1        0.1602
      5 O          62.9156   85.6370   10.8074 O.3     1  UNL1       -0.4374
      6 C          62.7203   86.8298   11.6956 C.2     1  UNL1        0.4051
      7 O          63.1976   86.7927   13.1171 O.2     1  UNL1       -0.2262
      8 C          62.1610   85.2307    7.9799 C.ar    1  UNL1        0.0140
      9 C          63.2889   84.7814    7.0990 C.ar    1  UNL1        0.0014
     10 C          63.0117   84.3379    5.6931 C.ar    1  UNL1        0.0294
     11 C          61.6066   84.3437    5.1682 C.ar    1  UNL1        0.1401
     12 F          61.3294   83.9002    3.7623 F       1  UNL1       -0.2042
     13 C          60.4786   84.7930    6.0491 C.ar    1  UNL1        0.0294
     14 C          60.7558   85.2365    7.4550 C.ar    1  UNL1        0.0014
     15 C          60.4687   89.7572   12.3354 C.3     1  UNL1        0.0265
     16 C          61.8522   89.2528   12.0504 C.3     1  UNL1        0.1011
     17 C          63.0406   89.9412   12.6538 C.ar    1  UNL1       -0.0042
     18 C          63.7601   91.0084   11.8835 C.ar    1  UNL1       -0.0027
     19 C          64.9484   91.6968   12.4868 C.ar    1  UNL1       -0.0003
     20 C          65.4172   91.3180   13.8604 C.ar    1  UNL1       -0.0000
     21 C          64.6977   90.2509   14.6307 C.ar    1  UNL1       -0.0003
     22 C          63.5094   89.5625   14.0274 C.ar    1  UNL1       -0.0027
     23 C          66.6056   92.0065   14.4637 C.ar    1  UNL1        0.0001
     24 C          67.9450   91.9145   13.7950 C.ar    1  UNL1        0.0023
     25 C          69.1334   92.6029   14.3983 C.ar    1  UNL1        0.0296
     26 C          68.9822   93.3834   15.6703 C.ar    1  UNL1        0.1401
     27 F          70.1705   94.0718   16.2736 F       1  UNL1       -0.2042
     28 C          67.6426   93.4753   16.3390 C.ar    1  UNL1        0.0296
     29 C          66.4543   92.7869   15.7357 C.ar    1  UNL1        0.0023
     30 C          63.0146   84.2901    9.4308 C.3     1  UNL1        0.0762
     31 C          63.4934   83.7191   10.7326 C.3     1  UNL1        0.1411
     32 O          64.9059   83.2311   10.8632 O.3     1  UNL1       -0.3819
     33 H          65.0357   82.4595   10.2900 H       1  UNL1        0.2104
@<TRIPOS>BOND
     1    16    15    1
     2    16    17    1
     3    17    18   ar
     4    18    19   ar
     5    19    20   ar
     6    20    23    1
     7    23    24   ar
     8    24    25   ar
     9    25    26   ar
    10    26    27    1
    11    26    28   ar
    12    28    29   ar
    13    20    21   ar
    14    21    22   ar
    15    16     1    1
    16     1     2    1
    17     2     3    1
    18     3     4    1
    19     4    30    1
    20    30    31    1
    21    31    32    1
    22     4     8    1
    23     8     9   ar
    24     9    10   ar
    25    10    11   ar
    26    11    12    1
    27    11    13   ar
    28    13    14   ar
    29     4     5    1
    30     5     6    1
    31     6     7    2
    32    22    17   ar
    33     6     1   am
    34    29    23   ar
    35    14     8   ar
    36    32    33    1
@<TRIPOS>MOLECULE
*****
 33 36 0 0 0
SMALL
GASTEIGER

@<TRIPOS>ATOM
      1 N          63.6971   90.2014   13.0121 N.am    1  UNL1       -0.2438
      2 C          65.0358   90.7954   12.6882 C.3     1  UNL1        0.1009
      3 C          65.8010   91.5395   13.7421 C.3     1  UNL1        0.0662
      4 C          65.2275   91.6896   15.1200 C.3     1  UNL1        0.1602
      5 O          63.8887   91.0956   15.4440 O.3     1  UNL1       -0.4374
      6 C          63.1235   90.3515   14.3900 C.2     1  UNL1        0.4051
      7 O          61.7848   89.7574   14.7140 O.2     1  UNL1       -0.2262
      8 C          66.5234   92.4244   15.2958 C.ar    1  UNL1        0.0140
      9 C          66.6831   93.8073   14.7373 C.ar    1  UNL1        0.0014
     10 C          67.9790   94.5421   14.9130 C.ar    1  UNL1        0.0294
     11 C          69.1150   93.8939   15.6474 C.ar    1  UNL1        0.1401
     12 F          70.4109   94.6287   15.8232 F       1  UNL1       -0.2042
     13 C          68.9553   92.5109   16.2059 C.ar    1  UNL1        0.0294
     14 C          67.6594   91.7762   16.0301 C.ar    1  UNL1        0.0014
     15 C          62.1995   90.2128   10.8891 C.3     1  UNL1        0.0265
     16 C          62.9319   89.4573   11.9582 C.3     1  UNL1        0.1011
     17 C          62.8990   87.9577   11.9734 C.ar    1  UNL1       -0.0042
     18 C          62.2146   87.2113   10.8668 C.ar    1  UNL1       -0.0027
     19 C          62.1818   85.7118   10.8821 C.ar    1  UNL1       -0.0003
     20 C          62.8333   84.9586   12.0038 C.ar    1  UNL1       -0.0000
     21 C          63.5177   85.7051   13.1103 C.ar    1  UNL1       -0.0003
     22 C          63.5505   87.2046   13.0951 C.ar    1  UNL1       -0.0027
     23 C          62.8005   83.4590   12.0190 C.ar    1  UNL1        0.0001
     24 C          63.1948   82.6878   10.7944 C.ar    1  UNL1        0.0023
     25 C          63.1619   81.1882   10.8096 C.ar    1  UNL1        0.0296
     26 C          62.7347   80.4599   12.0494 C.ar    1  UNL1        0.1401
     27 F          62.7019   78.9603   12.0646 F       1  UNL1       -0.2042
     28 C          62.3404   81.2312   13.2740 C.ar    1  UNL1        0.0296
     29 C          62.3733   82.7307   13.2588 C.ar    1  UNL1        0.0023
     30 C          65.1040   92.0949   16.5590 C.3     1  UNL1        0.0762
     31 C          63.7480   92.2942   17.1683 C.3     1  UNL1        0.1411
     32 O          63.0798   93.6349   17.0890 O.3     1  UNL1       -0.3819
     33 H          63.5868   94.2799   17.6066 H       1  UNL1        0.2104
@<TRIPOS>BOND
     1    16    15    1
     2    16    17    1
     3    17    18   ar
     4    18    19   ar
     5    19    20   ar
     6    20    23    1
     7    23    24   ar
     8    24    25   ar
     9    25    26   ar
    10    26    27    1
    11    26    28   ar
    12    28    29   ar
    13    20    21   ar
    14    21    22   ar
    15    16     1    1
    16     1     2    1
    17     2     3    1
    18     3     4    1
    19     4    30    1
    20    30    31    1
    21    31    32    1
    22     4     8    1
    23     8     9   ar
    24     9    10   ar
    25    10    11   ar
    26    11    12    1
    27    11    13   ar
    28    13    14   ar
    29     4     5    1
    30     5     6    1
    31     6     7    2
    32    22    17   ar
    33     6     1   am
    34    29    23   ar
    35    14     8   ar
    36    32    33    1
