@<TRIPOS>MOLECULE
*****
 17 19 0 0 0
SMALL
GASTEIGER

@<TRIPOS>ATOM
      1 C          60.9290   87.2634    9.0375 C.3     1  UNL1        0.0347
      2 C          61.9806   87.8274    9.9463 C.3     1  UNL1        0.0054
      3 C          61.7472   89.3044   10.0647 C.3     1  UNL1        0.0004
      4 C          60.5513   89.6532    9.2292 C.3     1  UNL1        0.0017
      5 C          60.0456   88.3918    8.5943 C.3     1  UNL1        0.0208
      6 C          58.9940   87.8278    7.6855 C.3     1  UNL1        0.0689
      7 N          59.2274   86.3507    7.5670 N.3     1  UNL1       -0.2972
      8 C          60.4233   86.0020    8.4026 C.3     1  UNL1        0.0726
      9 H          59.4023   86.1050    6.5926 H       1  UNL1        0.1233
     10 CL         64.4623   82.7497   10.8099 Cl      1  UNL1       -0.0814
     11 C          63.5790   83.8781   10.3669 C.ar    1  UNL1        0.0682
     12 C          63.6170   84.3453    8.9420 C.ar    1  UNL1        0.0119
     13 C          62.7336   85.4737    8.4989 C.ar    1  UNL1       -0.0033
     14 C          61.8123   86.1350    9.4807 C.ar    1  UNL1       -0.0206
     15 C          61.7744   85.6678   10.9056 C.ar    1  UNL1        0.0080
     16 C          62.6577   84.5394   11.3486 C.ar    1  UNL1        0.0679
     17 CL         62.6197   84.0722   12.7735 Cl      1  UNL1       -0.0814
@<TRIPOS>BOND
     1    10    11    1
     2    11    12   ar
     3    12    13   ar
     4    13    14   ar
     5     1    14    1
     6     1     2    1
     7     2     3    1
     8     3     4    1
     9     5     4    1
    10     5     6    1
    11     6     7    1
    12     7     8    1
    13    14    15   ar
    14    15    16   ar
    15    16    17    1
    16    16    11   ar
    17     5     1    1
    18     8     1    1
    19     7     9    1
@<TRIPOS>MOLECULE
*****
 17 19 0 0 0
SMALL
GASTEIGER

@<TRIPOS>ATOM
      1 C          60.9969   87.3845    9.1729 C.3     1  UNL1        0.0347
      2 C          60.4816   86.1817    8.4396 C.3     1  UNL1        0.0054
      3 C          59.3150   86.6143    7.6018 C.3     1  UNL1        0.0004
      4 C          59.1093   88.0844    7.8173 C.3     1  UNL1        0.0017
      5 C          60.1488   88.5604    8.7883 C.3     1  UNL1        0.0208
      6 C          60.6641   89.7632    9.5215 C.3     1  UNL1        0.0689
      7 N          61.8308   89.3307   10.3594 N.3     1  UNL1       -0.2972
      8 C          62.0364   87.8605   10.1439 C.3     1  UNL1        0.0726
      9 H          61.6360   89.5123   11.3441 H       1  UNL1        0.1233
     10 CL         64.3895   82.6810   10.7114 Cl      1  UNL1       -0.0814
     11 C          63.5414   83.8568   10.3268 C.ar    1  UNL1        0.0682
     12 C          63.5773   84.3798    8.9214 C.ar    1  UNL1        0.0119
     13 C          62.7291   85.5557    8.5368 C.ar    1  UNL1       -0.0033
     14 C          61.8451   86.2086    9.5576 C.ar    1  UNL1       -0.0206
     15 C          61.8091   85.6856   10.9630 C.ar    1  UNL1        0.0080
     16 C          62.6573   84.5098   11.3476 C.ar    1  UNL1        0.0679
     17 CL         62.6213   83.9868   12.7530 Cl      1  UNL1       -0.0814
@<TRIPOS>BOND
     1    10    11    1
     2    11    12   ar
     3    12    13   ar
     4    13    14   ar
     5     1    14    1
     6     1     2    1
     7     2     3    1
     8     3     4    1
     9     5     4    1
    10     5     6    1
    11     6     7    1
    12     7     8    1
    13    14    15   ar
    14    15    16   ar
    15    16    17    1
    16    16    11   ar
    17     5     1    1
    18     8     1    1
    19     7     9    1
@<TRIPOS>MOLECULE
*****
 17 19 0 0 0
SMALL
GASTEIGER

@<TRIPOS>ATOM
      1 C          63.1353   82.7126   12.7899 C.3     1  UNL1        0.0347
      2 C          63.8310   83.4071   11.6569 C.3     1  UNL1        0.0054
      3 C          63.9216   82.4453   10.5094 C.3     1  UNL1        0.0004
      4 C          63.2819   81.1564   10.9332 C.3     1  UNL1        0.0017
      5 C          62.7960   81.3216   12.3427 C.3     1  UNL1        0.0208
      6 C          62.1003   80.6271   13.4757 C.3     1  UNL1        0.0689
      7 N          62.0097   81.5890   14.6233 N.3     1  UNL1       -0.2972
      8 C          62.6494   82.8778   14.1994 C.3     1  UNL1        0.0726
      9 H          62.5001   81.2090   15.4330 H       1  UNL1        0.1233
     10 CL         64.4928   88.2763   14.5793 Cl      1  UNL1       -0.0814
     11 C          64.1534   86.8855   14.1320 C.ar    1  UNL1        0.0682
     12 C          64.6168   85.7056   14.9340 C.ar    1  UNL1        0.0119
     13 C          64.2775   84.3147   14.4866 C.ar    1  UNL1       -0.0033
     14 C          63.4747   84.1036   13.2372 C.ar    1  UNL1       -0.0206
     15 C          63.0113   85.2834   12.4352 C.ar    1  UNL1        0.0080
     16 C          63.3506   86.6743   12.8826 C.ar    1  UNL1        0.0679
     17 CL         62.8872   87.8541   12.0806 Cl      1  UNL1       -0.0814
@<TRIPOS>BOND
     1    10    11    1
     2    11    12   ar
     3    12    13   ar
     4    13    14   ar
     5     1    14    1
     6     1     2    1
     7     2     3    1
     8     3     4    1
     9     5     4    1
    10     5     6    1
    11     6     7    1
    12     7     8    1
    13    14    15   ar
    14    15    16   ar
    15    16    17    1
    16    16    11   ar
    17     5     1    1
    18     8     1    1
    19     7     9    1
@<TRIPOS>MOLECULE
*****
 17 19 0 0 0
SMALL
GASTEIGER

@<TRIPOS>ATOM
      1 C          61.1915   86.6374    8.8141 C.3     1  UNL1        0.0347
      2 C          62.5970   86.1210    8.9023 C.3     1  UNL1        0.0054
      3 C          62.7968   85.1294    7.7946 C.3     1  UNL1        0.0004
      4 C          61.5148   85.0331    7.0219 C.3     1  UNL1        0.0017
      5 C          60.5226   85.9651    7.6520 C.3     1  UNL1        0.0208
      6 C          59.1171   86.4815    7.5638 C.3     1  UNL1        0.0689
      7 N          58.9172   87.4731    8.6715 N.3     1  UNL1       -0.2972
      8 C          60.1993   87.5694    9.4442 C.3     1  UNL1        0.0726
      9 H          58.1657   87.1593    9.2856 H       1  UNL1        0.1233
     10 CL         63.8666   89.3266   13.4629 Cl      1  UNL1       -0.0814
     11 C          63.1979   88.6544   12.3008 C.ar    1  UNL1        0.0682
     12 C          62.9613   87.1734   12.3256 C.ar    1  UNL1        0.0119
     13 C          62.2925   86.5011   11.1634 C.ar    1  UNL1       -0.0033
     14 C          61.8603   87.3098    9.9763 C.ar    1  UNL1       -0.0206
     15 C          62.0969   88.7908    9.9515 C.ar    1  UNL1        0.0080
     16 C          62.7657   89.4630   11.1136 C.ar    1  UNL1        0.0679
     17 CL         63.0023   90.9440   11.0887 Cl      1  UNL1       -0.0814
@<TRIPOS>BOND
     1    10    11    1
     2    11    12   ar
     3    12    13   ar
     4    13    14   ar
     5     1    14    1
     6     1     2    1
     7     2     3    1
     8     3     4    1
     9     5     4    1
    10     5     6    1
    11     6     7    1
    12     7     8    1
    13    14    15   ar
    14    15    16   ar
    15    16    17    1
    16    16    11   ar
    17     5     1    1
    18     8     1    1
    19     7     9    1
@<TRIPOS>MOLECULE
*****
 17 19 0 0 0
SMALL
GASTEIGER

@<TRIPOS>ATOM
      1 C          62.6917   83.4224   13.2289 C.3     1  UNL1        0.0347
      2 C          62.3368   82.3021   12.2967 C.3     1  UNL1        0.0054
      3 C          61.9914   81.1009   13.1260 C.3     1  UNL1        0.0004
      4 C          62.1328   81.4788   14.5708 C.3     1  UNL1        0.0017
      5 C          62.5656   82.9136   14.6343 C.3     1  UNL1        0.0208
      6 C          62.9205   84.0339   15.5665 C.3     1  UNL1        0.0689
      7 N          63.2660   85.2352   14.7372 N.3     1  UNL1       -0.2972
      8 C          63.1245   84.8572   13.2925 C.3     1  UNL1        0.0726
      9 H          64.2259   85.5227   14.9274 H       1  UNL1        0.1233
     10 CL         63.1962   85.4577    7.6073 Cl      1  UNL1       -0.0814
     11 C          63.0701   84.9489    9.0126 C.ar    1  UNL1        0.0682
     12 C          63.8606   83.7518    9.4506 C.ar    1  UNL1        0.0119
     13 C          63.7345   83.2429   10.8561 C.ar    1  UNL1       -0.0033
     14 C          62.8178   83.9313   11.8235 C.ar    1  UNL1       -0.0206
     15 C          62.0272   85.1284   11.3854 C.ar    1  UNL1        0.0080
     16 C          62.1534   85.6372    9.9801 C.ar    1  UNL1        0.0679
     17 CL         61.3628   86.8344    9.5421 Cl      1  UNL1       -0.0814
@<TRIPOS>BOND
     1    10    11    1
     2    11    12   ar
     3    12    13   ar
     4    13    14   ar
     5     1    14    1
     6     1     2    1
     7     2     3    1
     8     3     4    1
     9     5     4    1
    10     5     6    1
    11     6     7    1
    12     7     8    1
    13    14    15   ar
    14    15    16   ar
    15    16    17    1
    16    16    11   ar
    17     5     1    1
    18     8     1    1
    19     7     9    1
@<TRIPOS>MOLECULE
*****
 17 19 0 0 0
SMALL
GASTEIGER

@<TRIPOS>ATOM
      1 C          65.1621   91.4759   14.7206 C.3     1  UNL1        0.0347
      2 C          66.0669   91.3547   13.5304 C.3     1  UNL1        0.0054
      3 C          67.3459   92.0721   13.8455 C.3     1  UNL1        0.0004
      4 C          67.2316   92.6367   15.2305 C.3     1  UNL1        0.0017
      5 C          65.8819   92.2682   15.7714 C.3     1  UNL1        0.0208
      6 C          64.9771   92.3894   16.9616 C.3     1  UNL1        0.0689
      7 N          63.6980   91.6719   16.6465 N.3     1  UNL1       -0.2972
      8 C          63.8124   91.1074   15.2614 C.3     1  UNL1        0.0726
      9 H          62.9152   92.3243   16.6908 H       1  UNL1        0.1233
     10 CL         62.2825   88.3064   10.5180 Cl      1  UNL1       -0.0814
     11 C          63.0024   89.0987   11.5686 C.ar    1  UNL1        0.0682
     12 C          63.4317   88.4369   12.8443 C.ar    1  UNL1        0.0119
     13 C          64.1516   89.2293   13.8950 C.ar    1  UNL1       -0.0033
     14 C          64.4422   90.6835   13.6699 C.ar    1  UNL1       -0.0206
     15 C          64.0128   91.3454   12.3941 C.ar    1  UNL1        0.0080
     16 C          63.2930   90.5530   11.3435 C.ar    1  UNL1        0.0679
     17 CL         62.8637   91.2149   10.0677 Cl      1  UNL1       -0.0814
@<TRIPOS>BOND
     1    10    11    1
     2    11    12   ar
     3    12    13   ar
     4    13    14   ar
     5     1    14    1
     6     1     2    1
     7     2     3    1
     8     3     4    1
     9     5     4    1
    10     5     6    1
    11     6     7    1
    12     7     8    1
    13    14    15   ar
    14    15    16   ar
    15    16    17    1
    16    16    11   ar
    17     5     1    1
    18     8     1    1
    19     7     9    1
@<TRIPOS>MOLECULE
*****
 17 19 0 0 0
SMALL
GASTEIGER

@<TRIPOS>ATOM
      1 C          62.0260   85.7166   10.3586 C.3     1  UNL1        0.0347
      2 C          63.0706   84.7316    9.9244 C.3     1  UNL1        0.0054
      3 C          63.1227   84.7418    8.4253 C.3     1  UNL1        0.0004
      4 C          62.1103   85.7332    7.9331 C.3     1  UNL1        0.0017
      5 C          61.4325   86.3356    9.1279 C.3     1  UNL1        0.0208
      6 C          60.3879   87.3207    9.5621 C.3     1  UNL1        0.0689
      7 N          60.3357   87.3104   11.0612 N.3     1  UNL1       -0.2972
      8 C          61.3482   86.3190   11.5534 C.3     1  UNL1        0.0726
      9 H          59.4038   87.0375   11.3733 H       1  UNL1        0.1233
     10 CL         64.3996   83.2404   15.2814 Cl      1  UNL1       -0.0814
     11 C          63.8062   83.8594   14.0508 C.ar    1  UNL1        0.0682
     12 C          63.1609   82.9916   13.0113 C.ar    1  UNL1        0.0119
     13 C          62.5675   83.6107   11.7806 C.ar    1  UNL1       -0.0033
     14 C          62.6194   85.0976   11.5894 C.ar    1  UNL1       -0.0206
     15 C          63.2647   85.9653   12.6288 C.ar    1  UNL1        0.0080
     16 C          63.8581   85.3463   13.8595 C.ar    1  UNL1        0.0679
     17 CL         64.5033   86.2141   14.8990 Cl      1  UNL1       -0.0814
@<TRIPOS>BOND
     1    10    11    1
     2    11    12   ar
     3    12    13   ar
     4    13    14   ar
     5     1    14    1
     6     1     2    1
     7     2     3    1
     8     3     4    1
     9     5     4    1
    10     5     6    1
    11     6     7    1
    12     7     8    1
    13    14    15   ar
    14    15    16   ar
    15    16    17    1
    16    16    11   ar
    17     5     1    1
    18     8     1    1
    19     7     9    1
@<TRIPOS>MOLECULE
*****
 17 19 0 0 0
SMALL
GASTEIGER

@<TRIPOS>ATOM
      1 C          63.2180   82.7308   12.5920 C.3     1  UNL1        0.0347
      2 C          62.5626   82.8812   13.9328 C.3     1  UNL1        0.0054
      3 C          61.8438   81.6018   14.2434 C.3     1  UNL1        0.0004
      4 C          62.0550   80.6607   13.0945 C.3     1  UNL1        0.0017
      5 C          62.9044   81.3585   12.0739 C.3     1  UNL1        0.0208
      6 C          63.5598   81.2082   10.7331 C.3     1  UNL1        0.0689
      7 N          64.2787   82.4877   10.4225 N.3     1  UNL1       -0.2972
      8 C          64.0674   83.4286   11.5714 C.3     1  UNL1        0.0726
      9 H          63.9034   82.8965    9.5666 H       1  UNL1        0.1233
     10 CL         64.4731   88.2199   14.6643 Cl      1  UNL1       -0.0814
     11 C          64.1594   86.8477   14.1463 C.ar    1  UNL1        0.0682
     12 C          64.6191   85.6370   14.9031 C.ar    1  UNL1        0.0119
     13 C          64.3053   84.2647   14.3850 C.ar    1  UNL1       -0.0033
     14 C          63.5318   84.1032   13.1100 C.ar    1  UNL1       -0.0206
     15 C          63.0721   85.3139   12.3532 C.ar    1  UNL1        0.0080
     16 C          63.3859   86.6860   12.8712 C.ar    1  UNL1        0.0679
     17 CL         62.9262   87.8967   12.1143 Cl      1  UNL1       -0.0814
@<TRIPOS>BOND
     1    10    11    1
     2    11    12   ar
     3    12    13   ar
     4    13    14   ar
     5     1    14    1
     6     1     2    1
     7     2     3    1
     8     3     4    1
     9     5     4    1
    10     5     6    1
    11     6     7    1
    12     7     8    1
    13    14    15   ar
    14    15    16   ar
    15    16    17    1
    16    16    11   ar
    17     5     1    1
    18     8     1    1
    19     7     9    1
@<TRIPOS>MOLECULE
*****
 17 19 0 0 0
SMALL
GASTEIGER

@<TRIPOS>ATOM
      1 C          63.5222   90.6583   11.7124 C.3     1  UNL1        0.0347
      2 C          63.0197   89.5426   12.5800 C.3     1  UNL1        0.0054
      3 C          63.7488   89.6093   13.8892 C.3     1  UNL1        0.0004
      4 C          64.7020   90.7661   13.8307 C.3     1  UNL1        0.0017
      5 C          64.5619   91.4144   12.4853 C.3     1  UNL1        0.0208
      6 C          65.0644   92.5300   11.6176 C.3     1  UNL1        0.0689
      7 N          64.3353   92.4634   10.3084 N.3     1  UNL1       -0.2972
      8 C          63.3822   91.3066   10.3670 C.3     1  UNL1        0.0726
      9 H          65.0010   92.3253    9.5480 H       1  UNL1        0.1233
     10 CL         59.3635   87.6343    8.6205 Cl      1  UNL1       -0.0814
     11 C          60.4031   88.3902    9.3935 C.ar    1  UNL1        0.0682
     12 C          60.0826   89.7428    9.9572 C.ar    1  UNL1        0.0119
     13 C          61.1223   90.4988   10.7302 C.ar    1  UNL1       -0.0033
     14 C          62.4825   89.9022   10.9394 C.ar    1  UNL1       -0.0206
     15 C          62.8031   88.5496   10.3756 C.ar    1  UNL1        0.0080
     16 C          61.7634   87.7937    9.6027 C.ar    1  UNL1        0.0679
     17 CL         62.0840   86.4411    9.0390 Cl      1  UNL1       -0.0814
@<TRIPOS>BOND
     1    10    11    1
     2    11    12   ar
     3    12    13   ar
     4    13    14   ar
     5     1    14    1
     6     1     2    1
     7     2     3    1
     8     3     4    1
     9     5     4    1
    10     5     6    1
    11     6     7    1
    12     7     8    1
    13    14    15   ar
    14    15    16   ar
    15    16    17    1
    16    16    11   ar
    17     5     1    1
    18     8     1    1
    19     7     9    1
