@<TRIPOS>MOLECULE
*****
 31 34 0 0 0
SMALL
GASTEIGER

@<TRIPOS>ATOM
      1 C          63.1007   86.7529   13.1729 C.ar    1  UNL1        0.1345
      2 C          64.0349   87.2246   14.2474 C.ar    1  UNL1        0.0360
      3 C          64.5933   88.6159   14.1981 C.ar    1  UNL1        0.0236
      4 C          64.2174   89.5355   13.0743 C.ar    1  UNL1        0.1019
      5 C          63.2831   89.0638   11.9997 C.ar    1  UNL1        0.1194
      6 N          62.7248   87.6725   12.0491 N.ar    1  UNL1       -0.2274
      7 N          64.7758   90.9269   13.0250 N.ar    1  UNL1       -0.2241
      8 N          65.2441   91.6459   11.7946 N.ar    1  UNL1       -0.1651
      9 C          65.7216   93.0069   12.2066 C.ar    1  UNL1        0.1042
     10 C          65.5484   93.1290   13.6916 C.ar    1  UNL1        0.0440
     11 C          64.9638   91.8435   14.1973 C.ar    1  UNL1        0.1557
     12 C          66.2752   94.0606   11.2939 C.ar    1  UNL1        0.0386
     13 C          66.9903   93.6635   10.0365 C.ar    1  UNL1        0.0047
     14 C          67.5439   94.7173    9.1238 C.ar    1  UNL1        0.0207
     15 C          67.3824   96.1682    9.4685 C.ar    1  UNL1        0.0989
     16 N          66.6673   96.5653   10.7258 N.ar    1  UNL1       -0.2423
     17 C          66.1137   95.5115   11.6385 C.ar    1  UNL1        0.1004
     18 C          64.6264   91.5298   15.6248 C.3     1  UNL1        0.4349
     19 F          64.2892   91.2161   17.0523 F       1  UNL1       -0.1644
     20 F          63.2319   91.1604   15.2142 F       1  UNL1       -0.1644
     21 F          66.0211   91.8993   16.0356 F       1  UNL1       -0.1644
     22 O          64.9536   84.3944   13.2383 O.2     1  UNL1       -0.2698
     23 C          63.4688   84.1823   13.2549 C.2     1  UNL1        0.2505
     24 N          62.5423   85.3615   13.2222 N.am    1  UNL1       -0.2658
     25 H          61.5678   85.2223   13.2331 H       1  UNL1        0.1566
     26 C          62.9104   82.7909   13.3042 C.ar    1  UNL1        0.0537
     27 C          61.9056   82.4228   14.3553 C.ar    1  UNL1        0.0045
     28 C          61.3472   81.0315   14.4045 C.ar    1  UNL1        0.0001
     29 C          61.7937   80.0083   13.4027 C.ar    1  UNL1        0.0000
     30 C          62.7985   80.3764   12.3516 C.ar    1  UNL1        0.0001
     31 C          63.3569   81.7677   12.3023 C.ar    1  UNL1        0.0045
@<TRIPOS>BOND
     1    22    23    2
     2    23    24   am
     3    24     1    1
     4     1     2   ar
     5     2     3   ar
     6     3     4   ar
     7     4     7    1
     8     7     8   ar
     9     8     9   ar
    10     9    12    1
    11    12    13   ar
    12    13    14   ar
    13    14    15   ar
    14    15    16   ar
    15    16    17   ar
    16     9    10   ar
    17    10    11   ar
    18    11    18    1
    19    18    19    1
    20    18    20    1
    21    18    21    1
    22     4     5   ar
    23     5     6   ar
    24    23    26    1
    25    26    27   ar
    26    27    28   ar
    27    28    29   ar
    28    29    30   ar
    29    30    31   ar
    30     6     1   ar
    31    31    26   ar
    32    11     7   ar
    33    17    12   ar
    34    24    25    1
@<TRIPOS>MOLECULE
*****
 31 34 0 0 0
SMALL
GASTEIGER

@<TRIPOS>ATOM
      1 C          64.6780   91.2384   12.7922 C.ar    1  UNL1        0.1345
      2 C          65.3447   90.7246   14.0337 C.ar    1  UNL1        0.0360
      3 C          65.0046   89.3611   14.5582 C.ar    1  UNL1        0.0236
      4 C          63.9978   88.5113   13.8411 C.ar    1  UNL1        0.1019
      5 C          63.3311   89.0251   12.5995 C.ar    1  UNL1        0.1194
      6 N          63.6712   90.3886   12.0751 N.ar    1  UNL1       -0.2274
      7 N          63.6578   87.1477   14.3656 N.ar    1  UNL1       -0.2241
      8 N          63.6192   85.8796   13.5653 N.ar    1  UNL1       -0.1651
      9 C          63.2342   84.7610   14.4875 C.ar    1  UNL1        0.1042
     10 C          63.0348   85.3378   15.8578 C.ar    1  UNL1        0.0440
     11 C          63.2966   86.8129   15.7824 C.ar    1  UNL1        0.1557
     12 C          63.0763   83.3189   14.1064 C.ar    1  UNL1        0.0386
     13 C          61.9145   82.5276   14.6300 C.ar    1  UNL1        0.0047
     14 C          61.7566   81.0855   14.2489 C.ar    1  UNL1        0.0207
     15 C          62.7605   80.4346   13.3442 C.ar    1  UNL1        0.0989
     16 N          63.9223   81.2258   12.8206 N.ar    1  UNL1       -0.2423
     17 C          64.0802   82.6680   13.2017 C.ar    1  UNL1        0.1004
     18 C          63.2121   87.7827   16.9235 C.3     1  UNL1        0.4349
     19 F          63.1275   88.7526   18.0646 F       1  UNL1       -0.1644
     20 F          63.5284   86.6772   17.8867 F       1  UNL1       -0.1644
     21 F          62.8957   88.8884   15.9604 F       1  UNL1       -0.1644
     22 O          66.8742   91.5649   10.7748 O.2     1  UNL1       -0.2698
     23 C          66.1161   92.7652   11.2590 C.2     1  UNL1        0.2505
     24 N          65.0180   92.6020   12.2677 N.am    1  UNL1       -0.2658
     25 H          64.5205   93.3898   12.5855 H       1  UNL1        0.1566
     26 C          66.4562   94.1288   10.7345 C.ar    1  UNL1        0.0537
     27 C          67.1783   94.2710    9.4275 C.ar    1  UNL1        0.0045
     28 C          67.5183   95.6346    8.9031 C.ar    1  UNL1        0.0001
     29 C          67.1362   96.8559    9.6856 C.ar    1  UNL1        0.0000
     30 C          66.4141   96.7137   10.9926 C.ar    1  UNL1        0.0001
     31 C          66.0741   95.3501   11.5170 C.ar    1  UNL1        0.0045
@<TRIPOS>BOND
     1    22    23    2
     2    23    24   am
     3    24     1    1
     4     1     2   ar
     5     2     3   ar
     6     3     4   ar
     7     4     7    1
     8     7     8   ar
     9     8     9   ar
    10     9    12    1
    11    12    13   ar
    12    13    14   ar
    13    14    15   ar
    14    15    16   ar
    15    16    17   ar
    16     9    10   ar
    17    10    11   ar
    18    11    18    1
    19    18    19    1
    20    18    20    1
    21    18    21    1
    22     4     5   ar
    23     5     6   ar
    24    23    26    1
    25    26    27   ar
    26    27    28   ar
    27    28    29   ar
    28    29    30   ar
    29    30    31   ar
    30     6     1   ar
    31    31    26   ar
    32    11     7   ar
    33    17    12   ar
    34    24    25    1
@<TRIPOS>MOLECULE
*****
 31 34 0 0 0
SMALL
GASTEIGER

@<TRIPOS>ATOM
      1 C          62.7579   84.8545   12.2706 C.ar    1  UNL1        0.1345
      2 C          62.3430   85.8580   11.2358 C.ar    1  UNL1        0.0360
      3 C          62.6764   87.3086   11.4217 C.ar    1  UNL1        0.0236
      4 C          63.4248   87.7557   12.6424 C.ar    1  UNL1        0.1019
      5 C          63.8397   86.7522   13.6772 C.ar    1  UNL1        0.1194
      6 N          63.5062   85.3016   13.4913 N.ar    1  UNL1       -0.2274
      7 N          63.7582   89.2064   12.8282 N.ar    1  UNL1       -0.2241
      8 N          64.9075   89.7521   13.6228 N.ar    1  UNL1       -0.1651
      9 C          64.8605   91.2489   13.5378 C.ar    1  UNL1        0.1042
     10 C          63.6822   91.6283   12.6907 C.ar    1  UNL1        0.0440
     11 C          63.0009   90.3659   12.2521 C.ar    1  UNL1        0.1557
     12 C          65.8229   92.1995   14.1861 C.ar    1  UNL1        0.0386
     13 C          66.3680   91.9002   15.5511 C.ar    1  UNL1        0.0047
     14 C          67.3304   92.8507   16.1994 C.ar    1  UNL1        0.0207
     15 C          67.7476   94.1006   15.4827 C.ar    1  UNL1        0.0989
     16 N          67.2025   94.3999   14.1176 N.ar    1  UNL1       -0.2423
     17 C          66.2401   93.4493   13.4694 C.ar    1  UNL1        0.1004
     18 C          61.7773   90.2785   11.3890 C.3     1  UNL1        0.4349
     19 F          60.5536   90.1912   10.5259 F       1  UNL1       -0.1644
     20 F          60.9534   89.9276   12.5924 F       1  UNL1       -0.1644
     21 F          62.6011   90.6295   10.1855 F       1  UNL1       -0.1644
     22 O          64.7403   83.0139   10.9738 O.2     1  UNL1       -0.2698
     23 C          63.4156   82.4836   11.4364 C.2     1  UNL1        0.2505
     24 N          62.4244   83.4039   12.0848 N.am    1  UNL1       -0.2658
     25 H          61.5550   83.0558   12.3884 H       1  UNL1        0.1566
     26 C          63.0822   81.0329   11.2505 C.ar    1  UNL1        0.0537
     27 C          63.1169   80.4250    9.8797 C.ar    1  UNL1        0.0045
     28 C          62.7834   78.9744    9.6939 C.ar    1  UNL1        0.0001
     29 C          62.4153   78.1317   10.8789 C.ar    1  UNL1        0.0000
     30 C          62.3807   78.7396   12.2498 C.ar    1  UNL1        0.0001
     31 C          62.7141   80.1902   12.4356 C.ar    1  UNL1        0.0045
@<TRIPOS>BOND
     1    22    23    2
     2    23    24   am
     3    24     1    1
     4     1     2   ar
     5     2     3   ar
     6     3     4   ar
     7     4     7    1
     8     7     8   ar
     9     8     9   ar
    10     9    12    1
    11    12    13   ar
    12    13    14   ar
    13    14    15   ar
    14    15    16   ar
    15    16    17   ar
    16     9    10   ar
    17    10    11   ar
    18    11    18    1
    19    18    19    1
    20    18    20    1
    21    18    21    1
    22     4     5   ar
    23     5     6   ar
    24    23    26    1
    25    26    27   ar
    26    27    28   ar
    27    28    29   ar
    28    29    30   ar
    29    30    31   ar
    30     6     1   ar
    31    31    26   ar
    32    11     7   ar
    33    17    12   ar
    34    24    25    1
@<TRIPOS>MOLECULE
*****
 31 34 0 0 0
SMALL
GASTEIGER

@<TRIPOS>ATOM
      1 C          62.9468   84.8448   12.6975 C.ar    1  UNL1        0.1345
      2 C          63.8666   85.1670   13.8377 C.ar    1  UNL1        0.0360
      3 C          64.2276   86.5932   14.1300 C.ar    1  UNL1        0.0236
      4 C          63.6689   87.6972   13.2821 C.ar    1  UNL1        0.1019
      5 C          62.7491   87.3751   12.1419 C.ar    1  UNL1        0.1194
      6 N          62.3881   85.9488   11.8496 N.ar    1  UNL1       -0.2274
      7 N          64.0300   89.1235   13.5745 N.ar    1  UNL1       -0.2241
      8 N          64.5885   90.1106   12.5928 N.ar    1  UNL1       -0.1651
      9 C          64.7997   91.4102   13.3114 C.ar    1  UNL1        0.1042
     10 C          64.3716   91.2263   14.7373 C.ar    1  UNL1        0.0440
     11 C          63.8960   89.8130   14.8999 C.ar    1  UNL1        0.1557
     12 C          65.3434   92.6722   12.7099 C.ar    1  UNL1        0.0386
     13 C          65.1535   92.9485   11.2478 C.ar    1  UNL1        0.0047
     14 C          65.6972   94.2104   10.6463 C.ar    1  UNL1        0.0207
     15 C          66.4307   95.1960   11.5068 C.ar    1  UNL1        0.0989
     16 N          66.6206   94.9197   12.9689 N.ar    1  UNL1       -0.2423
     17 C          66.0769   93.6578   13.5704 C.ar    1  UNL1        0.1004
     18 C          63.3773   89.1974   16.1656 C.3     1  UNL1        0.4349
     19 F          62.8588   88.5818   17.4313 F       1  UNL1       -0.1644
     20 F          62.2374   90.1723   16.1727 F       1  UNL1       -0.1644
     21 F          64.5174   88.2225   16.1585 F       1  UNL1       -0.1644
     22 O          64.8310   83.1105   11.1347 O.2     1  UNL1       -0.2698
     23 C          63.5278   82.5514   11.6237 C.2     1  UNL1        0.2505
     24 N          62.5857   83.4185   12.4051 N.am    1  UNL1       -0.2658
     25 H          61.7304   83.0516   12.7260 H       1  UNL1        0.1566
     26 C          63.1667   81.1251   11.3314 C.ar    1  UNL1        0.0537
     27 C          63.1934   80.6190    9.9196 C.ar    1  UNL1        0.0045
     28 C          62.8323   79.1928    9.6273 C.ar    1  UNL1        0.0001
     29 C          62.4446   78.2727   10.7467 C.ar    1  UNL1        0.0000
     30 C          62.4179   78.7788   12.1584 C.ar    1  UNL1        0.0001
     31 C          62.7790   80.2050   12.4508 C.ar    1  UNL1        0.0045
@<TRIPOS>BOND
     1    22    23    2
     2    23    24   am
     3    24     1    1
     4     1     2   ar
     5     2     3   ar
     6     3     4   ar
     7     4     7    1
     8     7     8   ar
     9     8     9   ar
    10     9    12    1
    11    12    13   ar
    12    13    14   ar
    13    14    15   ar
    14    15    16   ar
    15    16    17   ar
    16     9    10   ar
    17    10    11   ar
    18    11    18    1
    19    18    19    1
    20    18    20    1
    21    18    21    1
    22     4     5   ar
    23     5     6   ar
    24    23    26    1
    25    26    27   ar
    26    27    28   ar
    27    28    29   ar
    28    29    30   ar
    29    30    31   ar
    30     6     1   ar
    31    31    26   ar
    32    11     7   ar
    33    17    12   ar
    34    24    25    1
@<TRIPOS>MOLECULE
*****
 31 34 0 0 0
SMALL
GASTEIGER

@<TRIPOS>ATOM
      1 C          64.0214   90.2834   12.8566 C.ar    1  UNL1        0.1345
      2 C          63.2484   89.4091   11.9143 C.ar    1  UNL1        0.0360
      3 C          63.0434   87.9582   12.2350 C.ar    1  UNL1        0.0236
      4 C          63.6113   87.3816   13.4979 C.ar    1  UNL1        0.1019
      5 C          64.3843   88.2560   14.4402 C.ar    1  UNL1        0.1194
      6 N          64.5893   89.7068   14.1196 N.ar    1  UNL1       -0.2274
      7 N          63.4061   85.9307   13.8185 N.ar    1  UNL1       -0.2241
      8 N          63.2970   84.8145   12.8224 N.ar    1  UNL1       -0.1651
      9 C          63.0976   83.5352   13.5797 C.ar    1  UNL1        0.1042
     10 C          63.0834   83.8607   15.0440 C.ar    1  UNL1        0.0440
     11 C          63.2742   85.3412   15.1915 C.ar    1  UNL1        0.1557
     12 C          62.9399   82.1700   12.9785 C.ar    1  UNL1        0.0386
     13 C          63.1714   81.9657   11.5106 C.ar    1  UNL1        0.0047
     14 C          63.0138   80.6006   10.9093 C.ar    1  UNL1        0.0207
     15 C          62.6247   79.4398   11.7760 C.ar    1  UNL1        0.0989
     16 N          62.3932   79.6441   13.2439 N.ar    1  UNL1       -0.2423
     17 C          62.5509   81.0092   13.8451 C.ar    1  UNL1        0.1004
     18 C          63.3241   86.0991   16.4850 C.3     1  UNL1        0.4349
     19 F          63.3739   86.8570   17.7784 F       1  UNL1       -0.1644
     20 F          64.8223   86.1184   16.4159 F       1  UNL1       -0.1644
     21 F          61.8257   86.0798   16.5541 F       1  UNL1       -0.1644
     22 O          66.7897   91.3383   12.3832 O.2     1  UNL1       -0.2698
     23 C          65.6106   92.2617   12.2993 C.2     1  UNL1        0.2505
     24 N          64.2265   91.7343   12.5360 N.am    1  UNL1       -0.2658
     25 H          63.4527   92.3405   12.4809 H       1  UNL1        0.1566
     26 C          65.8158   93.7127   11.9787 C.ar    1  UNL1        0.0537
     27 C          65.5019   94.2291   10.6058 C.ar    1  UNL1        0.0045
     28 C          65.7070   95.6800   10.2853 C.ar    1  UNL1        0.0001
     29 C          66.2260   96.6145   11.3376 C.ar    1  UNL1        0.0000
     30 C          66.5399   96.0981   12.7104 C.ar    1  UNL1        0.0001
     31 C          66.3348   94.6472   13.0310 C.ar    1  UNL1        0.0045
@<TRIPOS>BOND
     1    22    23    2
     2    23    24   am
     3    24     1    1
     4     1     2   ar
     5     2     3   ar
     6     3     4   ar
     7     4     7    1
     8     7     8   ar
     9     8     9   ar
    10     9    12    1
    11    12    13   ar
    12    13    14   ar
    13    14    15   ar
    14    15    16   ar
    15    16    17   ar
    16     9    10   ar
    17    10    11   ar
    18    11    18    1
    19    18    19    1
    20    18    20    1
    21    18    21    1
    22     4     5   ar
    23     5     6   ar
    24    23    26    1
    25    26    27   ar
    26    27    28   ar
    27    28    29   ar
    28    29    30   ar
    29    30    31   ar
    30     6     1   ar
    31    31    26   ar
    32    11     7   ar
    33    17    12   ar
    34    24    25    1
@<TRIPOS>MOLECULE
*****
 31 34 0 0 0
SMALL
GASTEIGER

@<TRIPOS>ATOM
      1 C          60.9822   91.5277    4.2826 C.ar    1  UNL1        0.1345
      2 C          62.1686   91.4895    3.3657 C.ar    1  UNL1        0.0360
      3 C          62.1595   92.2849    2.0940 C.ar    1  UNL1        0.0236
      4 C          60.9639   93.1184    1.7392 C.ar    1  UNL1        0.1019
      5 C          59.7775   93.1566    2.6562 C.ar    1  UNL1        0.1194
      6 N          59.7866   92.3612    3.9279 N.ar    1  UNL1       -0.2274
      7 N          60.9549   93.9138    0.4675 N.ar    1  UNL1       -0.2241
      8 N          60.3232   93.4981   -0.8280 N.ar    1  UNL1       -0.1651
      9 C          60.5537   94.5918   -1.8282 C.ar    1  UNL1        0.1042
     10 C          61.3280   95.6836   -1.1509 C.ar    1  UNL1        0.0440
     11 C          61.5759   95.2646    0.2679 C.ar    1  UNL1        0.1557
     12 C          60.0913   94.5936   -3.2551 C.ar    1  UNL1        0.0386
     13 C          58.7015   94.1421   -3.5937 C.ar    1  UNL1        0.0047
     14 C          58.2391   94.1439   -5.0206 C.ar    1  UNL1        0.0207
     15 C          59.1665   94.5971   -6.1090 C.ar    1  UNL1        0.0989
     16 N          60.5563   95.0485   -5.7704 N.ar    1  UNL1       -0.2423
     17 C          61.0187   95.0468   -4.3435 C.ar    1  UNL1        0.1004
     18 C          62.3150   96.0571    1.3049 C.3     1  UNL1        0.4349
     19 F          63.0540   96.8497    2.3420 F       1  UNL1       -0.1644
     20 F          63.6202   95.6112    0.7156 F       1  UNL1       -0.1644
     21 F          61.0096   96.5032    1.8943 F       1  UNL1       -0.1644
     22 O          58.4506   90.2641    5.2797 O.2     1  UNL1       -0.2698
     23 C          59.7255   90.1005    6.0529 C.2     1  UNL1        0.2505
     24 N          60.9913   90.7323    5.5544 N.am    1  UNL1       -0.2658
     25 H          61.8280   90.6249    6.0619 H       1  UNL1        0.1566
     26 C          59.7346   89.3051    7.3247 C.ar    1  UNL1        0.0537
     27 C          59.2307   87.8923    7.3293 C.ar    1  UNL1        0.0045
     28 C          59.2398   87.0970    8.6010 C.ar    1  UNL1        0.0001
     29 C          59.7528   87.7145    9.8681 C.ar    1  UNL1        0.0000
     30 C          60.2566   89.1273    9.8635 C.ar    1  UNL1        0.0001
     31 C          60.2475   89.9226    8.5918 C.ar    1  UNL1        0.0045
@<TRIPOS>BOND
     1    22    23    2
     2    23    24   am
     3    24     1    1
     4     1     2   ar
     5     2     3   ar
     6     3     4   ar
     7     4     7    1
     8     7     8   ar
     9     8     9   ar
    10     9    12    1
    11    12    13   ar
    12    13    14   ar
    13    14    15   ar
    14    15    16   ar
    15    16    17   ar
    16     9    10   ar
    17    10    11   ar
    18    11    18    1
    19    18    19    1
    20    18    20    1
    21    18    21    1
    22     4     5   ar
    23     5     6   ar
    24    23    26    1
    25    26    27   ar
    26    27    28   ar
    27    28    29   ar
    28    29    30   ar
    29    30    31   ar
    30     6     1   ar
    31    31    26   ar
    32    11     7   ar
    33    17    12   ar
    34    24    25    1
@<TRIPOS>MOLECULE
*****
 31 34 0 0 0
SMALL
GASTEIGER

@<TRIPOS>ATOM
      1 C          64.7592   90.8513   13.5238 C.ar    1  UNL1        0.1345
      2 C          64.3601   89.4410   13.8426 C.ar    1  UNL1        0.0360
      3 C          63.4686   88.6835   12.9037 C.ar    1  UNL1        0.0236
      4 C          62.9763   89.3363   11.6461 C.ar    1  UNL1        0.1019
      5 C          63.3755   90.7466   11.3274 C.ar    1  UNL1        0.1194
      6 N          64.2670   91.5041   12.2662 N.ar    1  UNL1       -0.2274
      7 N          62.0849   88.5787   10.7073 N.ar    1  UNL1       -0.2241
      8 N          62.5237   87.5323    9.7262 N.ar    1  UNL1       -0.1651
      9 C          61.3082   87.0414    8.9973 C.ar    1  UNL1        0.1042
     10 C          60.1180   87.7844    9.5278 C.ar    1  UNL1        0.0440
     11 C          60.5980   88.7345   10.5847 C.ar    1  UNL1        0.1557
     12 C          61.2866   85.9918    7.9259 C.ar    1  UNL1        0.0386
     13 C          62.5628   85.3287    7.4997 C.ar    1  UNL1        0.0047
     14 C          62.5411   84.2791    6.4284 C.ar    1  UNL1        0.0207
     15 C          61.2433   83.8926    5.7832 C.ar    1  UNL1        0.0989
     16 N          59.9671   84.5557    6.2094 N.ar    1  UNL1       -0.2423
     17 C          59.9887   85.6053    7.2807 C.ar    1  UNL1        0.1004
     18 C          59.7416   89.6752   11.3793 C.3     1  UNL1        0.4349
     19 F          58.8851   90.6160   12.1739 F       1  UNL1       -0.1644
     20 F          59.3487   88.5492   12.2891 F       1  UNL1       -0.1644
     21 F          60.1344   90.8014   10.4695 F       1  UNL1       -0.1644
     22 O          67.5621   91.5388   12.7044 O.2     1  UNL1       -0.2698
     23 C          67.0521   91.9526   14.0529 C.2     1  UNL1        0.2505
     24 N          65.6507   91.6089   14.4627 N.am    1  UNL1       -0.2658
     25 H          65.3160   91.8806   15.3478 H       1  UNL1        0.1566
     26 C          67.9436   92.7102   14.9918 C.ar    1  UNL1        0.0537
     27 C          67.9014   94.2093   15.0205 C.ar    1  UNL1        0.0045
     28 C          68.7929   94.9668   15.9593 C.ar    1  UNL1        0.0001
     29 C          69.7265   94.2252   16.8694 C.ar    1  UNL1        0.0000
     30 C          69.7687   92.7261   16.8407 C.ar    1  UNL1        0.0001
     31 C          68.8773   91.9686   15.9019 C.ar    1  UNL1        0.0045
@<TRIPOS>BOND
     1    22    23    2
     2    23    24   am
     3    24     1    1
     4     1     2   ar
     5     2     3   ar
     6     3     4   ar
     7     4     7    1
     8     7     8   ar
     9     8     9   ar
    10     9    12    1
    11    12    13   ar
    12    13    14   ar
    13    14    15   ar
    14    15    16   ar
    15    16    17   ar
    16     9    10   ar
    17    10    11   ar
    18    11    18    1
    19    18    19    1
    20    18    20    1
    21    18    21    1
    22     4     5   ar
    23     5     6   ar
    24    23    26    1
    25    26    27   ar
    26    27    28   ar
    27    28    29   ar
    28    29    30   ar
    29    30    31   ar
    30     6     1   ar
    31    31    26   ar
    32    11     7   ar
    33    17    12   ar
    34    24    25    1
