@<TRIPOS>MOLECULE
*****
 35 38 0 0 0
SMALL
GASTEIGER

@<TRIPOS>ATOM
      1 C          63.6394   87.0803   16.0645 C.3     1  UNL1        0.1812
      2 O          64.2539   87.2232   14.7036 O.3     1  UNL1       -0.3784
      3 H          64.6117   86.3678   14.4190 H       1  UNL1        0.2106
      4 C          63.0248   86.9374   17.4253 C.3     1  UNL1        0.4197
      5 F          62.4103   86.7944   18.7862 F       1  UNL1       -0.1676
      6 F          62.1503   88.1258   17.1552 F       1  UNL1       -0.1676
      7 F          63.8993   85.7490   17.6953 F       1  UNL1       -0.1676
      8 C          64.0090   85.6266   16.0788 C.3     1  UNL1        0.0398
      9 C          63.6705   84.7551   14.9058 C.3     1  UNL1        0.0212
     10 C          65.1114   84.7566   14.4888 C.3     1  UNL1        0.0044
     11 C          62.2296   84.7536   15.3227 C.3     1  UNL1        0.0044
     12 C          62.9880   85.9973   12.2616 C.3     1  UNL1        0.0307
     13 C          62.9908   84.5047   12.4107 C.ar    1  UNL1       -0.0257
     14 C          62.6523   83.6332   11.2377 C.ar    1  UNL1       -0.0023
     15 C          62.6550   82.1406   11.3868 C.ar    1  UNL1        0.0293
     16 C          62.9963   81.5195   12.7088 C.ar    1  UNL1        0.1398
     17 F          62.9990   80.0269   12.8579 F       1  UNL1       -0.2042
     18 C          63.3348   82.3910   13.8818 C.ar    1  UNL1        0.0250
     19 C          63.3320   83.8836   13.7328 C.ar    1  UNL1       -0.0244
     20 C          63.2697   88.5339   16.0502 C.3     1  UNL1        0.0811
     21 C          63.5804   89.3750   14.8477 C.2     1  UNL1        0.0613
     22 C          64.6866   90.3822   14.7381 C.2     1  UNL1        0.0160
     23 C          64.6293   90.9863   13.3664 C.2     1  UNL1        0.0182
     24 C          65.4692   92.0316   12.6941 C.2     1  UNL1        0.0200
     25 C          65.1674   92.4431   11.2835 C.2     1  UNL1        0.0765
     26 N          64.0258   91.8093   10.5453 N.2     1  UNL1       -0.2639
     27 C          63.1860   90.7640   11.2175 C.3     1  UNL1        0.1707
     28 C          63.4877   90.3525   12.6280 C.2     1  UNL1        0.0832
     29 N          62.8394   89.3567   13.5436 N.2     1  UNL1       -0.2519
     30 C          66.0073   93.4884   10.6113 C.ar    1  UNL1        0.0172
     31 C          67.1796   93.0809    9.7687 C.ar    1  UNL1        0.0015
     32 C          68.0195   94.1262    9.0964 C.ar    1  UNL1        0.0000
     33 C          67.6871   95.5791    9.2667 C.ar    1  UNL1        0.0000
     34 C          66.5149   95.9865   10.1093 C.ar    1  UNL1        0.0000
     35 C          65.6750   94.9412   10.7815 C.ar    1  UNL1        0.0015
@<TRIPOS>BOND
     1    12    13    1
     2    13    14   ar
     3    14    15   ar
     4    15    16   ar
     5    16    17    1
     6    16    18   ar
     7    18    19   ar
     8    19     9    1
     9     9    10    1
    10     9    11    1
    11     9     8    1
    12     8     1    1
    13     1     2    1
    14     1    20    1
    15    20    21    1
    16    21    22    2
    17    22    23    1
    18    23    24    2
    19    24    25    1
    20    25    30    1
    21    30    31   ar
    22    31    32   ar
    23    32    33   ar
    24    33    34   ar
    25    34    35   ar
    26    25    26    2
    27    26    27    1
    28    27    28    1
    29    28    29    2
    30     1     4    1
    31     4     5    1
    32     4     6    1
    33     4     7    1
    34    19    13   ar
    35    29    21    1
    36    28    23    1
    37    35    30   ar
    38     2     3    1
@<TRIPOS>MOLECULE
*****
 35 38 0 0 0
SMALL
GASTEIGER

@<TRIPOS>ATOM
      1 C          63.6732   87.0281   15.9199 C.3     1  UNL1        0.1812
      2 O          64.2597   87.1876   14.5485 O.3     1  UNL1       -0.3784
      3 H          64.5162   86.3181   14.2035 H       1  UNL1        0.2106
      4 C          63.0868   86.8687   17.2912 C.3     1  UNL1        0.4197
      5 F          62.5002   86.7093   18.6626 F       1  UNL1       -0.1676
      6 F          63.8609   85.5970   17.4745 F       1  UNL1       -0.1676
      7 F          62.3127   88.1404   17.1080 F       1  UNL1       -0.1676
      8 C          63.8867   85.5456   15.8388 C.3     1  UNL1        0.0398
      9 C          63.7148   84.8335   14.5299 C.3     1  UNL1        0.0212
     10 C          65.2007   84.8503   14.3256 C.3     1  UNL1        0.0044
     11 C          62.2288   84.8167   14.7341 C.3     1  UNL1        0.0044
     12 C          63.6267   81.8358   14.4532 C.3     1  UNL1        0.0307
     13 C          63.4988   82.6227   13.1825 C.ar    1  UNL1       -0.0257
     14 C          63.3269   81.9106   11.8735 C.ar    1  UNL1       -0.0023
     15 C          63.1990   82.6974   10.6029 C.ar    1  UNL1        0.0293
     16 C          63.2431   84.1964   10.6412 C.ar    1  UNL1        0.1398
     17 F          63.1152   84.9832    9.3706 F       1  UNL1       -0.2042
     18 C          63.4150   84.9084   11.9502 C.ar    1  UNL1        0.0250
     19 C          63.5429   84.1215   13.2209 C.ar    1  UNL1       -0.0244
     20 C          63.4598   88.5106   16.0009 C.3     1  UNL1        0.0811
     21 C          63.7246   89.3731   14.8026 C.2     1  UNL1        0.0613
     22 C          64.8300   90.3779   14.6664 C.2     1  UNL1        0.0160
     23 C          64.7191   91.0080   13.3097 C.2     1  UNL1        0.0182
     24 C          65.5353   92.0626   12.6230 C.2     1  UNL1        0.0200
     25 C          65.1777   92.5019   11.2340 C.2     1  UNL1        0.0765
     26 N          64.0038   91.8864   10.5317 N.2     1  UNL1       -0.2639
     27 C          63.1876   90.8318   11.2184 C.3     1  UNL1        0.1707
     28 C          63.5452   90.3926   12.6073 C.2     1  UNL1        0.0832
     29 N          62.9305   89.3821   13.5300 N.2     1  UNL1       -0.2519
     30 C          65.9940   93.5565   10.5474 C.ar    1  UNL1        0.0172
     31 C          67.2199   93.1707    9.7738 C.ar    1  UNL1        0.0015
     32 C          68.0362   94.2253    9.0872 C.ar    1  UNL1        0.0000
     33 C          67.6265   95.6657    9.1741 C.ar    1  UNL1        0.0000
     34 C          66.4007   96.0514    9.9477 C.ar    1  UNL1        0.0000
     35 C          65.5844   94.9968   10.6343 C.ar    1  UNL1        0.0015
@<TRIPOS>BOND
     1    12    13    1
     2    13    14   ar
     3    14    15   ar
     4    15    16   ar
     5    16    17    1
     6    16    18   ar
     7    18    19   ar
     8    19     9    1
     9     9    10    1
    10     9    11    1
    11     9     8    1
    12     8     1    1
    13     1     2    1
    14     1    20    1
    15    20    21    1
    16    21    22    2
    17    22    23    1
    18    23    24    2
    19    24    25    1
    20    25    30    1
    21    30    31   ar
    22    31    32   ar
    23    32    33   ar
    24    33    34   ar
    25    34    35   ar
    26    25    26    2
    27    26    27    1
    28    27    28    1
    29    28    29    2
    30     1     4    1
    31     4     5    1
    32     4     6    1
    33     4     7    1
    34    19    13   ar
    35    29    21    1
    36    28    23    1
    37    35    30   ar
    38     2     3    1
@<TRIPOS>MOLECULE
*****
 35 38 0 0 0
SMALL
GASTEIGER

@<TRIPOS>ATOM
      1 C          61.9497   86.7470   10.6599 C.3     1  UNL1        0.1812
      2 O          62.9773   86.7222   11.7523 O.3     1  UNL1       -0.3784
      3 H          63.5205   85.9230   11.6672 H       1  UNL1        0.2106
      4 C          60.9221   86.7717    9.5675 C.3     1  UNL1        0.4197
      5 F          59.8945   86.7965    8.4750 F       1  UNL1       -0.1676
      6 F          61.9351   86.2309    8.6023 F       1  UNL1       -0.1676
      7 F          59.9092   87.3125   10.5326 F       1  UNL1       -0.1676
      8 C          62.4773   85.4449   10.1340 C.3     1  UNL1        0.0398
      9 C          62.7603   84.3143   11.0782 C.3     1  UNL1        0.0212
     10 C          63.8355   83.8156   10.1588 C.3     1  UNL1        0.0044
     11 C          61.6851   84.8129   11.9976 C.3     1  UNL1        0.0044
     12 C          64.1827   84.8417   13.6664 C.3     1  UNL1        0.0307
     13 C          63.7546   83.4473   13.3165 C.ar    1  UNL1       -0.0257
     14 C          64.0376   82.3167   14.2607 C.ar    1  UNL1       -0.0023
     15 C          63.6096   80.9223   13.9108 C.ar    1  UNL1        0.0293
     16 C          62.8984   80.6585   12.6166 C.ar    1  UNL1        0.1398
     17 F          62.4703   79.2642   12.2667 F       1  UNL1       -0.2042
     18 C          62.6153   81.7892   11.6724 C.ar    1  UNL1        0.0250
     19 C          63.0434   83.1836   12.0224 C.ar    1  UNL1       -0.0244
     20 C          61.4222   88.0489   11.1857 C.3     1  UNL1        0.0811
     21 C          62.3504   89.2114   11.3778 C.2     1  UNL1        0.0613
     22 C          62.8047   90.1627   10.3106 C.2     1  UNL1        0.0160
     23 C          63.7224   91.1660   10.9440 C.2     1  UNL1        0.0182
     24 C          64.4698   92.3384   10.3811 C.2     1  UNL1        0.0200
     25 C          65.3301   93.1796   11.2768 C.2     1  UNL1        0.0765
     26 N          65.4429   92.8485   12.7354 N.2     1  UNL1       -0.2639
     27 C          64.6954   91.6762   13.2984 C.3     1  UNL1        0.1707
     28 C          63.8352   90.8350   12.4027 C.2     1  UNL1        0.0832
     29 N          62.9872   89.6269   12.6708 N.2     1  UNL1       -0.2519
     30 C          66.0776   94.3520   10.7138 C.ar    1  UNL1        0.0172
     31 C          66.0149   95.6827   11.4034 C.ar    1  UNL1        0.0015
     32 C          66.7624   96.8550   10.8404 C.ar    1  UNL1        0.0000
     33 C          67.5725   96.6966    9.5879 C.ar    1  UNL1        0.0000
     34 C          67.6351   95.3660    8.8984 C.ar    1  UNL1        0.0000
     35 C          66.8877   94.1937    9.4614 C.ar    1  UNL1        0.0015
@<TRIPOS>BOND
     1    12    13    1
     2    13    14   ar
     3    14    15   ar
     4    15    16   ar
     5    16    17    1
     6    16    18   ar
     7    18    19   ar
     8    19     9    1
     9     9    10    1
    10     9    11    1
    11     9     8    1
    12     8     1    1
    13     1     2    1
    14     1    20    1
    15    20    21    1
    16    21    22    2
    17    22    23    1
    18    23    24    2
    19    24    25    1
    20    25    30    1
    21    30    31   ar
    22    31    32   ar
    23    32    33   ar
    24    33    34   ar
    25    34    35   ar
    26    25    26    2
    27    26    27    1
    28    27    28    1
    29    28    29    2
    30     1     4    1
    31     4     5    1
    32     4     6    1
    33     4     7    1
    34    19    13   ar
    35    29    21    1
    36    28    23    1
    37    35    30   ar
    38     2     3    1
@<TRIPOS>MOLECULE
*****
 35 38 0 0 0
SMALL
GASTEIGER

@<TRIPOS>ATOM
      1 C          63.6420   87.3479   15.7228 C.3     1  UNL1        0.1812
      2 O          64.1481   87.3277   14.3109 O.3     1  UNL1       -0.3784
      3 H          64.5358   86.4596   14.1188 H       1  UNL1        0.2106
      4 C          63.1358   87.3680   17.1346 C.3     1  UNL1        0.4197
      5 F          62.6297   87.3881   18.5466 F       1  UNL1       -0.1676
      6 F          63.8982   86.1094   17.4259 F       1  UNL1       -0.1676
      7 F          62.3734   88.6265   16.8434 F       1  UNL1       -0.1676
      8 C          64.0989   85.9310   15.9068 C.3     1  UNL1        0.0398
      9 C          63.7416   84.8895   14.8882 C.3     1  UNL1        0.0212
     10 C          65.1619   84.8740   14.4058 C.3     1  UNL1        0.0044
     11 C          62.3214   84.9049   15.3706 C.3     1  UNL1        0.0044
     12 C          62.9215   85.7148   12.1230 C.3     1  UNL1        0.0307
     13 C          62.9743   84.2605   12.4871 C.ar    1  UNL1       -0.0257
     14 C          62.6170   83.2190   11.4685 C.ar    1  UNL1       -0.0023
     15 C          62.6698   81.7648   11.8325 C.ar    1  UNL1        0.0293
     16 C          63.0798   81.3521   13.2151 C.ar    1  UNL1        0.1398
     17 F          63.1326   79.8979   13.5791 F       1  UNL1       -0.2042
     18 C          63.4371   82.3937   14.2337 C.ar    1  UNL1        0.0250
     19 C          63.3843   83.8479   13.8696 C.ar    1  UNL1       -0.0244
     20 C          63.1850   88.7646   15.5388 C.3     1  UNL1        0.0811
     21 C          64.0475   89.7401   14.7940 C.2     1  UNL1        0.0613
     22 C          63.6551   90.5037   13.5640 C.2     1  UNL1        0.0160
     23 C          64.8188   91.3587   13.1582 C.2     1  UNL1        0.0182
     24 C          65.0099   92.3211   12.0236 C.2     1  UNL1        0.0200
     25 C          66.3127   93.0483   11.8683 C.2     1  UNL1        0.0765
     26 N          67.4243   92.8131   12.8475 N.2     1  UNL1       -0.2639
     27 C          67.2332   91.8508   13.9822 C.3     1  UNL1        0.1707
     28 C          65.9305   91.1236   14.1375 C.2     1  UNL1        0.0832
     29 N          65.4537   90.1232   15.1485 N.2     1  UNL1       -0.2519
     30 C          66.5037   94.0106   10.7336 C.ar    1  UNL1        0.0172
     31 C          67.3567   93.6274    9.5607 C.ar    1  UNL1        0.0015
     32 C          67.5478   94.5897    8.4261 C.ar    1  UNL1        0.0000
     33 C          66.8859   95.9353    8.4643 C.ar    1  UNL1        0.0000
     34 C          66.0330   96.3185    9.6372 C.ar    1  UNL1        0.0000
     35 C          65.8419   95.3561   10.7719 C.ar    1  UNL1        0.0015
@<TRIPOS>BOND
     1    12    13    1
     2    13    14   ar
     3    14    15   ar
     4    15    16   ar
     5    16    17    1
     6    16    18   ar
     7    18    19   ar
     8    19     9    1
     9     9    10    1
    10     9    11    1
    11     9     8    1
    12     8     1    1
    13     1     2    1
    14     1    20    1
    15    20    21    1
    16    21    22    2
    17    22    23    1
    18    23    24    2
    19    24    25    1
    20    25    30    1
    21    30    31   ar
    22    31    32   ar
    23    32    33   ar
    24    33    34   ar
    25    34    35   ar
    26    25    26    2
    27    26    27    1
    28    27    28    1
    29    28    29    2
    30     1     4    1
    31     4     5    1
    32     4     6    1
    33     4     7    1
    34    19    13   ar
    35    29    21    1
    36    28    23    1
    37    35    30   ar
    38     2     3    1
@<TRIPOS>MOLECULE
*****
 35 38 0 0 0
SMALL
GASTEIGER

@<TRIPOS>ATOM
      1 C          61.3940   87.5341    9.3567 C.3     1  UNL1        0.1812
      2 O          62.8389   87.7168    9.7156 O.3     1  UNL1       -0.3784
      3 H          63.3037   86.8701    9.6266 H       1  UNL1        0.2106
      4 C          59.9491   87.3515    8.9977 C.3     1  UNL1        0.4197
      5 F          58.5042   87.1688    8.6387 F       1  UNL1       -0.1676
      6 F          59.5494   88.1681   10.1909 F       1  UNL1       -0.1676
      7 F          60.3488   86.5349    7.8047 F       1  UNL1       -0.1676
      8 C          61.6455   86.0807    9.0837 C.3     1  UNL1        0.0398
      9 C          62.1854   85.1964   10.1683 C.3     1  UNL1        0.0212
     10 C          61.1810   85.7610   11.1286 C.3     1  UNL1        0.0044
     11 C          63.1899   84.6318    9.2079 C.3     1  UNL1        0.0044
     12 C          63.3603   86.4101   12.6475 C.3     1  UNL1        0.0307
     13 C          63.3128   84.9188   12.4925 C.ar    1  UNL1       -0.0257
     14 C          63.8527   84.0345   13.5771 C.ar    1  UNL1       -0.0023
     15 C          63.8051   82.5433   13.4221 C.ar    1  UNL1        0.0293
     16 C          63.2177   81.9364   12.1825 C.ar    1  UNL1        0.1398
     17 F          63.1701   80.4452   12.0275 F       1  UNL1       -0.2042
     18 C          62.6778   82.8207   11.0979 C.ar    1  UNL1        0.0250
     19 C          62.7253   84.3120   11.2529 C.ar    1  UNL1       -0.0244
     20 C          61.1425   88.9874    9.6297 C.3     1  UNL1        0.0811
     21 C          62.2084   89.8255   10.2711 C.2     1  UNL1        0.0613
     22 C          62.8468   89.5712   11.6045 C.2     1  UNL1        0.0160
     23 C          63.8561   90.6535   11.8492 C.2     1  UNL1        0.0182
     24 C          64.7865   90.9176   12.9957 C.2     1  UNL1        0.0200
     25 C          65.7024   92.1051   12.9601 C.2     1  UNL1        0.0765
     26 N          65.6879   93.0283   11.7780 N.2     1  UNL1       -0.2639
     27 C          64.7575   92.7641   10.6315 C.3     1  UNL1        0.1707
     28 C          63.8416   91.5768   10.6671 C.2     1  UNL1        0.0832
     29 N          62.8232   91.0650    9.6917 N.2     1  UNL1       -0.2519
     30 C          66.6328   92.3692   14.1067 C.ar    1  UNL1        0.0172
     31 C          66.0819   92.5880   15.4846 C.ar    1  UNL1        0.0015
     32 C          67.0123   92.8522   16.6311 C.ar    1  UNL1        0.0000
     33 C          68.4937   92.8975   16.3997 C.ar    1  UNL1        0.0000
     34 C          69.0446   92.6787   15.0219 C.ar    1  UNL1        0.0000
     35 C          68.1142   92.4146   13.8753 C.ar    1  UNL1        0.0015
@<TRIPOS>BOND
     1    12    13    1
     2    13    14   ar
     3    14    15   ar
     4    15    16   ar
     5    16    17    1
     6    16    18   ar
     7    18    19   ar
     8    19     9    1
     9     9    10    1
    10     9    11    1
    11     9     8    1
    12     8     1    1
    13     1     2    1
    14     1    20    1
    15    20    21    1
    16    21    22    2
    17    22    23    1
    18    23    24    2
    19    24    25    1
    20    25    30    1
    21    30    31   ar
    22    31    32   ar
    23    32    33   ar
    24    33    34   ar
    25    34    35   ar
    26    25    26    2
    27    26    27    1
    28    27    28    1
    29    28    29    2
    30     1     4    1
    31     4     5    1
    32     4     6    1
    33     4     7    1
    34    19    13   ar
    35    29    21    1
    36    28    23    1
    37    35    30   ar
    38     2     3    1
@<TRIPOS>MOLECULE
*****
 35 38 0 0 0
SMALL
GASTEIGER

@<TRIPOS>ATOM
      1 C          61.3820   87.3386    9.4225 C.3     1  UNL1        0.1812
      2 O          62.8037   87.5135    9.8679 O.3     1  UNL1       -0.3784
      3 H          63.2339   86.6459    9.9240 H       1  UNL1        0.2106
      4 C          59.9604   87.1637    8.9772 C.3     1  UNL1        0.4197
      5 F          58.5387   86.9889    8.5319 F       1  UNL1       -0.1676
      6 F          60.4203   86.2793    7.8563 F       1  UNL1       -0.1676
      7 F          59.5005   88.0481   10.0980 F       1  UNL1       -0.1676
      8 C          61.5851   85.8538    9.3571 C.3     1  UNL1        0.0398
      9 C          62.3177   85.1478   10.4594 C.3     1  UNL1        0.0212
     10 C          63.2777   84.5790    9.4570 C.3     1  UNL1        0.0044
     11 C          61.3576   85.7165   11.4618 C.3     1  UNL1        0.0044
     12 C          62.9084   82.2154   10.2298 C.3     1  UNL1        0.0307
     13 C          63.3456   82.9756   11.4469 C.ar    1  UNL1       -0.0257
     14 C          64.0781   82.2696   12.5491 C.ar    1  UNL1       -0.0023
     15 C          64.5153   83.0297   13.7661 C.ar    1  UNL1        0.0293
     16 C          64.2200   84.4959   13.8809 C.ar    1  UNL1        0.1398
     17 F          64.6571   85.2560   15.0978 F       1  UNL1       -0.2042
     18 C          63.4874   85.2019   12.7786 C.ar    1  UNL1        0.0250
     19 C          63.0502   84.4417   11.5616 C.ar    1  UNL1       -0.0244
     20 C          61.1789   88.8233    9.4879 C.3     1  UNL1        0.0811
     21 C          62.2017   89.6913   10.1590 C.2     1  UNL1        0.0613
     22 C          62.8214   89.4459   11.5028 C.2     1  UNL1        0.0160
     23 C          63.7871   90.5601   11.7784 C.2     1  UNL1        0.0182
     24 C          64.6843   90.8448   12.9463 C.2     1  UNL1        0.0200
     25 C          65.5587   92.0636   12.9408 C.2     1  UNL1        0.0765
     26 N          65.5359   92.9977   11.7674 N.2     1  UNL1       -0.2639
     27 C          64.6387   92.7130   10.5995 C.3     1  UNL1        0.1707
     28 C          63.7643   91.4942   10.6050 C.2     1  UNL1        0.0832
     29 N          62.7844   90.9573    9.6041 N.2     1  UNL1       -0.2519
     30 C          66.4559   92.3483   14.1087 C.ar    1  UNL1        0.0172
     31 C          67.9300   92.5272   13.8959 C.ar    1  UNL1        0.0015
     32 C          68.8272   92.8119   15.0638 C.ar    1  UNL1        0.0000
     33 C          68.2503   92.9177   16.4444 C.ar    1  UNL1        0.0000
     34 C          66.7763   92.7388   16.6571 C.ar    1  UNL1        0.0000
     35 C          65.8791   92.4541   15.4893 C.ar    1  UNL1        0.0015
@<TRIPOS>BOND
     1    12    13    1
     2    13    14   ar
     3    14    15   ar
     4    15    16   ar
     5    16    17    1
     6    16    18   ar
     7    18    19   ar
     8    19     9    1
     9     9    10    1
    10     9    11    1
    11     9     8    1
    12     8     1    1
    13     1     2    1
    14     1    20    1
    15    20    21    1
    16    21    22    2
    17    22    23    1
    18    23    24    2
    19    24    25    1
    20    25    30    1
    21    30    31   ar
    22    31    32   ar
    23    32    33   ar
    24    33    34   ar
    25    34    35   ar
    26    25    26    2
    27    26    27    1
    28    27    28    1
    29    28    29    2
    30     1     4    1
    31     4     5    1
    32     4     6    1
    33     4     7    1
    34    19    13   ar
    35    29    21    1
    36    28    23    1
    37    35    30   ar
    38     2     3    1
@<TRIPOS>MOLECULE
*****
 35 38 0 0 0
SMALL
GASTEIGER

@<TRIPOS>ATOM
      1 C          61.3155   88.1006    9.4519 C.3     1  UNL1        0.1812
      2 O          62.5655   87.8697   10.2482 O.3     1  UNL1       -0.3784
      3 H          62.9136   86.9853   10.0545 H       1  UNL1        0.2106
      4 C          60.0656   88.3314    8.6555 C.3     1  UNL1        0.4197
      5 F          58.8155   88.5623    7.8591 F       1  UNL1       -0.1676
      6 F          60.4312   87.1919    7.7512 F       1  UNL1       -0.1676
      7 F          59.6999   89.4710    9.5597 F       1  UNL1       -0.1676
      8 C          61.4445   86.7316    8.8524 C.3     1  UNL1        0.0398
      9 C          62.0989   85.6300    9.6324 C.3     1  UNL1        0.0212
     10 C          63.0761   85.4188    8.5141 C.3     1  UNL1        0.0044
     11 C          61.1217   85.8412   10.7506 C.3     1  UNL1        0.0044
     12 C          63.0876   86.1465   12.4173 C.3     1  UNL1        0.0307
     13 C          63.2476   84.7866   11.8047 C.ar    1  UNL1       -0.0257
     14 C          63.9020   83.6850   12.5847 C.ar    1  UNL1       -0.0023
     15 C          64.0620   82.3252   11.9722 C.ar    1  UNL1        0.0293
     16 C          63.5676   82.0669   10.5797 C.ar    1  UNL1        0.1398
     17 F          63.7277   80.7071    9.9672 F       1  UNL1       -0.2042
     18 C          62.9133   83.1685    9.7997 C.ar    1  UNL1        0.0250
     19 C          62.7533   84.5284   10.4123 C.ar    1  UNL1       -0.0244
     20 C          61.1865   89.4695   10.0512 C.3     1  UNL1        0.0811
     21 C          62.1038   89.8922   11.1602 C.2     1  UNL1        0.0613
     22 C          63.4194   90.5942   10.9970 C.2     1  UNL1        0.0160
     23 C          63.9953   90.8230   12.3630 C.2     1  UNL1        0.0182
     24 C          65.2695   91.4694   12.8197 C.2     1  UNL1        0.0200
     25 C          65.5842   91.5551   14.2838 C.2     1  UNL1        0.0765
     26 N          64.6246   90.9945   15.2913 N.2     1  UNL1       -0.2639
     27 C          63.3504   90.3481   14.8346 C.3     1  UNL1        0.1707
     28 C          63.0357   90.2624   13.3705 C.2     1  UNL1        0.0832
     29 N          61.8667   89.6871   12.6271 N.2     1  UNL1       -0.2519
     30 C          66.8584   92.2015   14.7405 C.ar    1  UNL1        0.0172
     31 C          68.1343   91.9565   13.9907 C.ar    1  UNL1        0.0015
     32 C          69.4085   92.6028   14.4474 C.ar    1  UNL1        0.0000
     33 C          69.4069   93.4942   15.6539 C.ar    1  UNL1        0.0000
     34 C          68.1310   93.7391   16.4036 C.ar    1  UNL1        0.0000
     35 C          66.8568   93.0928   15.9469 C.ar    1  UNL1        0.0015
@<TRIPOS>BOND
     1    12    13    1
     2    13    14   ar
     3    14    15   ar
     4    15    16   ar
     5    16    17    1
     6    16    18   ar
     7    18    19   ar
     8    19     9    1
     9     9    10    1
    10     9    11    1
    11     9     8    1
    12     8     1    1
    13     1     2    1
    14     1    20    1
    15    20    21    1
    16    21    22    2
    17    22    23    1
    18    23    24    2
    19    24    25    1
    20    25    30    1
    21    30    31   ar
    22    31    32   ar
    23    32    33   ar
    24    33    34   ar
    25    34    35   ar
    26    25    26    2
    27    26    27    1
    28    27    28    1
    29    28    29    2
    30     1     4    1
    31     4     5    1
    32     4     6    1
    33     4     7    1
    34    19    13   ar
    35    29    21    1
    36    28    23    1
    37    35    30   ar
    38     2     3    1
@<TRIPOS>MOLECULE
*****
 35 38 0 0 0
SMALL
GASTEIGER

@<TRIPOS>ATOM
      1 C          62.9909   84.0992   14.9491 C.3     1  UNL1        0.1812
      2 O          61.7543   84.8569   14.5663 O.3     1  UNL1       -0.3784
      3 H          61.3733   84.4692   13.7629 H       1  UNL1        0.2106
      4 C          64.2275   83.3415   15.3320 C.3     1  UNL1        0.4197
      5 F          65.4642   82.5838   15.7149 F       1  UNL1       -0.1676
      6 F          63.7144   82.1354   14.6025 F       1  UNL1       -0.1676
      7 F          64.7406   84.5476   16.0614 F       1  UNL1       -0.1676
      8 C          62.8032   83.1954   13.7667 C.3     1  UNL1        0.0398
      9 C          62.7506   83.7719   12.3829 C.3     1  UNL1        0.0212
     10 C          63.5688   84.9432   12.8398 C.3     1  UNL1        0.0044
     11 C          61.9325   82.6006   11.9261 C.3     1  UNL1        0.0044
     12 C          64.5067   82.6521   10.2237 C.3     1  UNL1        0.0307
     13 C          63.5760   83.7885    9.9196 C.ar    1  UNL1       -0.0257
     14 C          63.5234   84.3650    8.5358 C.ar    1  UNL1       -0.0023
     15 C          62.5928   85.5014    8.2316 C.ar    1  UNL1        0.0293
     16 C          61.7147   86.0613    9.3112 C.ar    1  UNL1        0.1398
     17 F          60.7841   87.1977    9.0070 F       1  UNL1       -0.2042
     18 C          61.7673   85.4848   10.6950 C.ar    1  UNL1        0.0250
     19 C          62.6980   84.3484   10.9992 C.ar    1  UNL1       -0.0244
     20 C          63.1786   85.0030   16.1315 C.3     1  UNL1        0.0811
     21 C          63.4350   86.4662   15.9237 C.2     1  UNL1        0.0613
     22 C          64.2203   87.0728   14.7987 C.2     1  UNL1        0.0160
     23 C          64.2218   88.5612   14.9842 C.2     1  UNL1        0.0182
     24 C          64.8360   89.6717   14.1845 C.2     1  UNL1        0.0200
     25 C          64.6659   91.0957   14.6244 C.2     1  UNL1        0.0765
     26 N          63.8815   91.4091   15.8639 N.2     1  UNL1       -0.2639
     27 C          63.2673   90.2986   16.6636 C.3     1  UNL1        0.1707
     28 C          63.4374   88.8747   16.2238 C.2     1  UNL1        0.0832
     29 N          62.9511   87.5799   16.8044 N.2     1  UNL1       -0.2519
     30 C          65.2801   92.2062   13.8247 C.ar    1  UNL1        0.0172
     31 C          66.1555   93.2206   14.4990 C.ar    1  UNL1        0.0015
     32 C          66.7698   94.3311   13.6993 C.ar    1  UNL1        0.0000
     33 C          66.5086   94.4272   12.2253 C.ar    1  UNL1        0.0000
     34 C          65.6332   93.4128   11.5511 C.ar    1  UNL1        0.0000
     35 C          65.0189   92.3023   12.3508 C.ar    1  UNL1        0.0015
@<TRIPOS>BOND
     1    12    13    1
     2    13    14   ar
     3    14    15   ar
     4    15    16   ar
     5    16    17    1
     6    16    18   ar
     7    18    19   ar
     8    19     9    1
     9     9    10    1
    10     9    11    1
    11     9     8    1
    12     8     1    1
    13     1     2    1
    14     1    20    1
    15    20    21    1
    16    21    22    2
    17    22    23    1
    18    23    24    2
    19    24    25    1
    20    25    30    1
    21    30    31   ar
    22    31    32   ar
    23    32    33   ar
    24    33    34   ar
    25    34    35   ar
    26    25    26    2
    27    26    27    1
    28    27    28    1
    29    28    29    2
    30     1     4    1
    31     4     5    1
    32     4     6    1
    33     4     7    1
    34    19    13   ar
    35    29    21    1
    36    28    23    1
    37    35    30   ar
    38     2     3    1
