@<TRIPOS>MOLECULE
*****
 39 42 0 0 0
SMALL
GASTEIGER

@<TRIPOS>ATOM
      1 C          63.7939   89.9703   15.4882 C.ar    1  UNL1        0.0505
      2 C          64.3851   89.0984   14.4203 C.ar    1  UNL1        0.0148
      3 C          64.2950   87.6056   14.5358 C.ar    1  UNL1        0.0058
      4 C          63.6137   86.9847   15.7192 C.ar    1  UNL1        0.0534
      5 C          63.0225   87.8566   16.7870 C.ar    1  UNL1        0.0058
      6 C          63.1127   89.3494   16.6715 C.ar    1  UNL1        0.0148
      7 C          63.5236   85.4918   15.8347 C.2     1  UNL1        0.2461
      8 O          64.3943   84.7614   16.8136 O.2     1  UNL1       -0.2701
      9 N          62.5627   84.7294   14.9713 N.am    1  UNL1       -0.2969
     10 H          61.9912   85.2088   14.3288 H       1  UNL1        0.1501
     11 C          62.4725   83.2366   15.0868 C.3     1  UNL1        0.1165
     12 C          62.6142   82.3798   13.8638 C.ar    1  UNL1        0.0013
     13 C          62.3659   80.9030   13.9498 C.ar    1  UNL1       -0.0027
     14 C          62.5075   80.0462   12.7267 C.ar    1  UNL1       -0.0003
     15 C          62.8974   80.6662   11.4177 C.ar    1  UNL1       -0.0001
     16 C          63.1456   82.1430   11.3317 C.ar    1  UNL1        0.0036
     17 C          63.0040   82.9998   12.5547 C.ar    1  UNL1        0.0691
     18 C          63.2523   84.4766   12.4687 C.3     1  UNL1        0.4183
     19 F          63.5005   85.9535   12.3826 F       1  UNL1       -0.1659
     20 F          64.6590   84.2679   12.9456 F       1  UNL1       -0.1659
     21 F          61.8455   84.6853   11.9918 F       1  UNL1       -0.1659
     22 N          63.8840   91.4632   15.3727 N.pl3   1  UNL1       -0.2824
     23 H          63.1116   92.0232   15.6156 H       1  UNL1        0.1551
     24 C          67.6417   92.7356   15.2690 C.ar    1  UNL1        0.2217
     25 N          66.3748   92.0961   15.7546 N.ar    1  UNL1       -0.1808
     26 C          65.1511   92.1027   14.8871 C.ar    1  UNL1        0.2254
     27 N          65.1943   92.7488   13.5341 N.ar    1  UNL1       -0.1806
     28 C          66.4613   93.3883   13.0486 C.ar    1  UNL1        0.2250
     29 N          67.6850   93.3817   13.9161 N.ar    1  UNL1       -0.1808
     30 N          66.5046   94.0345   11.6955 N.pl3   1  UNL1       -0.2752
     31 C          66.9553   93.2458   10.5019 C.3     1  UNL1        0.1109
     32 C          66.9987   93.8920    9.1488 C.3     1  UNL1        0.0939
     33 N          66.5912   95.3268    8.9895 N.3     1  UNL1       -0.2686
     34 C          66.6345   95.9729    7.6365 C.3     1  UNL1        0.0897
     35 C          66.1405   96.1154   10.1833 C.3     1  UNL1        0.0939
     36 C          66.0972   95.4692   11.5362 C.3     1  UNL1        0.1109
     37 C          69.7711   93.9243   16.1649 C.3     1  UNL1        0.1108
     38 N          68.8654   92.7290   16.1365 N.pl3   1  UNL1       -0.3012
     39 H          69.0742   91.9401   16.6872 H       1  UNL1        0.1497
@<TRIPOS>BOND
     1    37    38    1
     2    38    24    1
     3    24    25   ar
     4    25    26   ar
     5    26    22    1
     6    22     1    1
     7     1     2   ar
     8     2     3   ar
     9     3     4   ar
    10     4     7    1
    11     7     8    2
    12     7     9   am
    13     9    11    1
    14    11    12    1
    15    12    13   ar
    16    13    14   ar
    17    14    15   ar
    18    15    16   ar
    19    16    17   ar
    20    17    18    1
    21    18    19    1
    22    18    20    1
    23    18    21    1
    24     4     5   ar
    25     5     6   ar
    26    26    27   ar
    27    27    28   ar
    28    28    30    1
    29    30    31    1
    30    31    32    1
    31    32    33    1
    32    33    34    1
    33    33    35    1
    34    35    36    1
    35    28    29   ar
    36    29    24   ar
    37     6     1   ar
    38    36    30    1
    39    17    12   ar
    40    38    39    1
    41    22    23    1
    42     9    10    1
@<TRIPOS>MOLECULE
*****
 39 42 0 0 0
SMALL
GASTEIGER

@<TRIPOS>ATOM
      1 C          63.9234   90.0106   15.6695 C.ar    1  UNL1        0.0505
      2 C          63.2141   89.2690   16.7636 C.ar    1  UNL1        0.0148
      3 C          63.0548   87.7799   16.6792 C.ar    1  UNL1        0.0058
      4 C          63.6049   87.0324   15.5007 C.ar    1  UNL1        0.0534
      5 C          64.3143   87.7740   14.4068 C.ar    1  UNL1        0.0058
      6 C          64.4735   89.2631   14.4911 C.ar    1  UNL1        0.0148
      7 C          63.4457   85.5432   15.4164 C.2     1  UNL1        0.2461
      8 O          62.8767   84.7828   16.5774 O.2     1  UNL1       -0.2701
      9 N          63.8555   84.8145   14.1709 N.am    1  UNL1       -0.2969
     10 H          64.2290   85.3136   13.4089 H       1  UNL1        0.1501
     11 C          63.6962   83.3254   14.0865 C.3     1  UNL1        0.1165
     12 C          63.6574   82.6499   12.7478 C.ar    1  UNL1        0.0013
     13 C          64.3907   83.2484   11.5842 C.ar    1  UNL1       -0.0027
     14 C          64.3519   82.5729   10.2454 C.ar    1  UNL1       -0.0003
     15 C          63.5797   81.2990   10.0703 C.ar    1  UNL1       -0.0001
     16 C          62.8463   80.7005   11.2339 C.ar    1  UNL1        0.0036
     17 C          62.8851   81.3760   12.5726 C.ar    1  UNL1        0.0691
     18 C          62.1518   80.7775   13.7362 C.3     1  UNL1        0.4183
     19 F          61.4184   80.1789   14.8998 F       1  UNL1       -0.1659
     20 F          60.9105   81.5175   13.3345 F       1  UNL1       -0.1659
     21 F          63.3930   80.0374   14.1379 F       1  UNL1       -0.1659
     22 N          64.0827   91.4998   15.7539 N.pl3   1  UNL1       -0.2824
     23 H          63.3774   92.0475   16.1683 H       1  UNL1        0.1551
     24 C          67.7939   92.8818   15.4954 C.ar    1  UNL1        0.2217
     25 N          66.5601   92.2274   16.0425 N.ar    1  UNL1       -0.1808
     26 C          65.3166   92.1543   15.2068 C.ar    1  UNL1        0.2254
     27 N          65.3069   92.7357   13.8241 N.ar    1  UNL1       -0.1806
     28 C          66.5407   93.3901   13.2771 C.ar    1  UNL1        0.2250
     29 N          67.7842   93.4632   14.1128 N.ar    1  UNL1       -0.1808
     30 N          66.5311   93.9716   11.8944 N.pl3   1  UNL1       -0.2752
     31 C          66.1362   95.4035   11.6856 C.3     1  UNL1        0.1109
     32 C          66.1265   95.9849   10.3029 C.3     1  UNL1        0.0939
     33 N          66.5118   95.1344    9.1289 N.3     1  UNL1       -0.2686
     34 C          66.5022   95.7157    7.7462 C.3     1  UNL1        0.0897
     35 C          66.9067   93.7024    9.3377 C.3     1  UNL1        0.0939
     36 C          66.9163   93.1210   10.7204 C.3     1  UNL1        0.1109
     37 C          69.9220   94.1640   16.2554 C.3     1  UNL1        0.1108
     38 N          69.0374   92.9549   16.3311 N.pl3   1  UNL1       -0.3012
     39 H          69.2730   92.2093   16.9293 H       1  UNL1        0.1497
@<TRIPOS>BOND
     1    37    38    1
     2    38    24    1
     3    24    25   ar
     4    25    26   ar
     5    26    22    1
     6    22     1    1
     7     1     2   ar
     8     2     3   ar
     9     3     4   ar
    10     4     7    1
    11     7     8    2
    12     7     9   am
    13     9    11    1
    14    11    12    1
    15    12    13   ar
    16    13    14   ar
    17    14    15   ar
    18    15    16   ar
    19    16    17   ar
    20    17    18    1
    21    18    19    1
    22    18    20    1
    23    18    21    1
    24     4     5   ar
    25     5     6   ar
    26    26    27   ar
    27    27    28   ar
    28    28    30    1
    29    30    31    1
    30    31    32    1
    31    32    33    1
    32    33    34    1
    33    33    35    1
    34    35    36    1
    35    28    29   ar
    36    29    24   ar
    37     6     1   ar
    38    36    30    1
    39    17    12   ar
    40    38    39    1
    41    22    23    1
    42     9    10    1
@<TRIPOS>MOLECULE
*****
 39 42 0 0 0
SMALL
GASTEIGER

@<TRIPOS>ATOM
      1 C          63.3041   89.6092   13.2986 C.ar    1  UNL1        0.0505
      2 C          63.9897   88.6611   14.2372 C.ar    1  UNL1        0.0148
      3 C          64.0625   87.1998   13.9066 C.ar    1  UNL1        0.0058
      4 C          63.4495   86.6866   12.6373 C.ar    1  UNL1        0.0534
      5 C          62.7639   87.6347   11.6987 C.ar    1  UNL1        0.0058
      6 C          62.6912   89.0960   12.0293 C.ar    1  UNL1        0.0148
      7 C          63.5223   85.2253   12.3067 C.2     1  UNL1        0.2461
      8 O          62.5495   84.6270   11.3342 O.2     1  UNL1       -0.2701
      9 N          64.5679   84.3622   12.9486 N.am    1  UNL1       -0.2969
     10 H          65.2063   84.7549   13.5869 H       1  UNL1        0.1501
     11 C          64.6406   82.9009   12.6180 C.3     1  UNL1        0.1165
     12 C          63.5222   81.9849   13.0180 C.ar    1  UNL1        0.0013
     13 C          63.2048   80.7799   12.1831 C.ar    1  UNL1       -0.0027
     14 C          62.0863   79.8638   12.5830 C.ar    1  UNL1       -0.0003
     15 C          61.2854   80.1528   13.8179 C.ar    1  UNL1       -0.0001
     16 C          61.6029   81.3579   14.6528 C.ar    1  UNL1        0.0036
     17 C          62.7213   82.2739   14.2528 C.ar    1  UNL1        0.0691
     18 C          63.0387   83.4789   15.0877 C.3     1  UNL1        0.4183
     19 F          63.3561   84.6840   15.9227 F       1  UNL1       -0.1659
     20 F          64.3468   82.8604   15.4831 F       1  UNL1       -0.1659
     21 F          61.7306   84.0974   14.6924 F       1  UNL1       -0.1659
     22 N          63.2313   91.0705   13.6292 N.pl3   1  UNL1       -0.2824
     23 H          62.3628   91.4860   13.8348 H       1  UNL1        0.1551
     24 C          66.6131   92.7299   14.8782 C.ar    1  UNL1        0.2217
     25 N          65.3626   91.9018   14.8608 N.ar    1  UNL1       -0.1808
     26 C          64.4819   91.8987   13.6465 C.ar    1  UNL1        0.2254
     27 N          64.8518   92.7236   12.4497 N.ar    1  UNL1       -0.1806
     28 C          66.1023   93.5518   12.4671 C.ar    1  UNL1        0.2250
     29 N          66.9830   93.5549   13.6814 N.ar    1  UNL1       -0.1808
     30 N          66.4723   94.3768   11.2702 N.pl3   1  UNL1       -0.2752
     31 C          66.2177   95.8550   11.2705 C.3     1  UNL1        0.1109
     32 C          66.5877   96.6800   10.0736 C.3     1  UNL1        0.0939
     33 N          67.2122   96.0268    8.8764 N.3     1  UNL1       -0.2686
     34 C          67.5822   96.8517    7.6795 C.3     1  UNL1        0.0897
     35 C          67.4668   94.5485    8.8761 C.3     1  UNL1        0.0939
     36 C          67.0968   93.7235   10.0730 C.3     1  UNL1        0.1109
     37 C          68.9790   92.5873   15.9422 C.3     1  UNL1        0.1108
     38 N          67.4937   92.7331   16.0925 N.pl3   1  UNL1       -0.3012
     39 H          67.0968   92.8308   16.9882 H       1  UNL1        0.1497
@<TRIPOS>BOND
     1    37    38    1
     2    38    24    1
     3    24    25   ar
     4    25    26   ar
     5    26    22    1
     6    22     1    1
     7     1     2   ar
     8     2     3   ar
     9     3     4   ar
    10     4     7    1
    11     7     8    2
    12     7     9   am
    13     9    11    1
    14    11    12    1
    15    12    13   ar
    16    13    14   ar
    17    14    15   ar
    18    15    16   ar
    19    16    17   ar
    20    17    18    1
    21    18    19    1
    22    18    20    1
    23    18    21    1
    24     4     5   ar
    25     5     6   ar
    26    26    27   ar
    27    27    28   ar
    28    28    30    1
    29    30    31    1
    30    31    32    1
    31    32    33    1
    32    33    34    1
    33    33    35    1
    34    35    36    1
    35    28    29   ar
    36    29    24   ar
    37     6     1   ar
    38    36    30    1
    39    17    12   ar
    40    38    39    1
    41    22    23    1
    42     9    10    1
@<TRIPOS>MOLECULE
*****
 39 42 0 0 0
SMALL
GASTEIGER

@<TRIPOS>ATOM
      1 C          59.1333   89.8697    6.1280 C.ar    1  UNL1        0.0505
      2 C          60.4893   90.1990    5.5775 C.ar    1  UNL1        0.0148
      3 C          60.6409   91.2915    4.5609 C.ar    1  UNL1        0.0058
      4 C          59.4366   92.0548    4.0949 C.ar    1  UNL1        0.0534
      5 C          58.0807   91.7255    4.6455 C.ar    1  UNL1        0.0058
      6 C          57.9291   90.6329    5.6620 C.ar    1  UNL1        0.0148
      7 C          59.5882   93.1473    3.0784 C.2     1  UNL1        0.2461
      8 O          60.0301   94.5150    3.5075 O.2     1  UNL1       -0.2701
      9 N          59.2978   92.8721    1.6326 N.am    1  UNL1       -0.2969
     10 H          59.0078   91.9745    1.3510 H       1  UNL1        0.1501
     11 C          59.4494   93.9647    0.6161 C.3     1  UNL1        0.1165
     12 C          60.3637   93.7752   -0.5579 C.ar    1  UNL1        0.0013
     13 C          59.8156   93.8364   -1.9528 C.ar    1  UNL1       -0.0027
     14 C          60.7299   93.6469   -3.1268 C.ar    1  UNL1       -0.0003
     15 C          62.1922   93.3963   -2.9059 C.ar    1  UNL1       -0.0001
     16 C          62.7402   93.3351   -1.5109 C.ar    1  UNL1        0.0036
     17 C          61.8260   93.5246   -0.3369 C.ar    1  UNL1        0.0691
     18 C          62.3741   93.4634    1.0580 C.3     1  UNL1        0.4183
     19 F          62.9222   93.4022    2.4530 F       1  UNL1       -0.1659
     20 F          62.5506   94.9529    1.0539 F       1  UNL1       -0.1659
     21 F          62.1975   91.9739    1.0621 F       1  UNL1       -0.1659
     22 N          58.9817   88.7772    7.1446 N.pl3   1  UNL1       -0.2824
     23 H          58.2464   88.1276    7.0632 H       1  UNL1        0.1551
     24 C          61.2431   89.7845   10.2465 C.ar    1  UNL1        0.2217
     25 N          60.2743   89.8873    9.1060 N.ar    1  UNL1       -0.1808
     26 C          59.9506   88.6743    8.2852 C.ar    1  UNL1        0.2254
     27 N          60.5956   87.3584    8.6049 N.ar    1  UNL1       -0.1806
     28 C          61.5644   87.2555    9.7454 C.ar    1  UNL1        0.2250
     29 N          61.8881   88.4686   10.5662 N.ar    1  UNL1       -0.1808
     30 N          62.2095   85.9396   10.0652 N.pl3   1  UNL1       -0.2752
     31 C          62.9583   85.1931    9.0012 C.3     1  UNL1        0.1109
     32 C          63.6034   83.8772    9.3210 C.3     1  UNL1        0.0939
     33 N          63.4996   83.3077   10.7048 N.3     1  UNL1       -0.2686
     34 C          64.1447   81.9919   11.0246 C.3     1  UNL1        0.0897
     35 C          62.7508   84.0542   11.7688 C.3     1  UNL1        0.0939
     36 C          62.1058   85.3701   11.4490 C.3     1  UNL1        0.1109
     37 C          62.9743   91.2386   11.5264 C.3     1  UNL1        0.1108
     38 N          61.5668   90.9975   11.0673 N.pl3   1  UNL1       -0.3012
     39 H          60.8555   91.6354   11.3046 H       1  UNL1        0.1497
@<TRIPOS>BOND
     1    37    38    1
     2    38    24    1
     3    24    25   ar
     4    25    26   ar
     5    26    22    1
     6    22     1    1
     7     1     2   ar
     8     2     3   ar
     9     3     4   ar
    10     4     7    1
    11     7     8    2
    12     7     9   am
    13     9    11    1
    14    11    12    1
    15    12    13   ar
    16    13    14   ar
    17    14    15   ar
    18    15    16   ar
    19    16    17   ar
    20    17    18    1
    21    18    19    1
    22    18    20    1
    23    18    21    1
    24     4     5   ar
    25     5     6   ar
    26    26    27   ar
    27    27    28   ar
    28    28    30    1
    29    30    31    1
    30    31    32    1
    31    32    33    1
    32    33    34    1
    33    33    35    1
    34    35    36    1
    35    28    29   ar
    36    29    24   ar
    37     6     1   ar
    38    36    30    1
    39    17    12   ar
    40    38    39    1
    41    22    23    1
    42     9    10    1
@<TRIPOS>MOLECULE
*****
 39 42 0 0 0
SMALL
GASTEIGER

@<TRIPOS>ATOM
      1 C          59.0030   90.3320    5.9245 C.ar    1  UNL1        0.0505
      2 C          58.0318   91.2089    5.1910 C.ar    1  UNL1        0.0148
      3 C          58.5215   92.1387    4.1206 C.ar    1  UNL1        0.0058
      4 C          59.9823   92.1915    3.7836 C.ar    1  UNL1        0.0534
      5 C          60.9533   91.3145    4.5171 C.ar    1  UNL1        0.0058
      6 C          60.4636   90.3848    5.5875 C.ar    1  UNL1        0.0148
      7 C          60.4719   93.1212    2.7132 C.2     1  UNL1        0.2461
      8 O          60.0150   94.5498    2.6941 O.2     1  UNL1       -0.2701
      9 N          61.4185   92.6224    1.6619 N.am    1  UNL1       -0.2969
     10 H          61.7183   91.6847    1.6745 H       1  UNL1        0.1501
     11 C          61.9081   93.5521    0.5915 C.3     1  UNL1        0.1165
     12 C          61.2265   93.5832   -0.7443 C.ar    1  UNL1        0.0013
     13 C          59.8215   93.0761   -0.8813 C.ar    1  UNL1       -0.0027
     14 C          59.1398   93.1071   -2.2172 C.ar    1  UNL1       -0.0003
     15 C          59.8632   93.6453   -3.4160 C.ar    1  UNL1       -0.0001
     16 C          61.2682   94.1525   -3.2789 C.ar    1  UNL1        0.0036
     17 C          61.9498   94.1214   -1.9431 C.ar    1  UNL1        0.0691
     18 C          63.3548   94.6286   -1.8061 C.3     1  UNL1        0.4183
     19 F          64.7599   95.1357   -1.6691 F       1  UNL1       -0.1659
     20 F          62.8296   95.9915   -1.4649 F       1  UNL1       -0.1659
     21 F          63.8801   93.2656   -2.1473 F       1  UNL1       -0.1659
     22 N          58.5133   89.4022    6.9949 N.pl3   1  UNL1       -0.2824
     23 H          57.5980   89.4939    7.3456 H       1  UNL1        0.1551
     24 C          60.4262   85.9442    7.3602 C.ar    1  UNL1        0.2217
     25 N          59.5213   87.0137    6.8242 N.ar    1  UNL1       -0.1808
     26 C          59.4184   88.3327    7.5309 C.ar    1  UNL1        0.2254
     27 N          60.2204   88.5824    8.7736 N.ar    1  UNL1       -0.1806
     28 C          61.1253   87.5129    9.3096 C.ar    1  UNL1        0.2250
     29 N          61.2283   86.1939    8.6029 N.ar    1  UNL1       -0.1808
     30 N          61.9274   87.7625   10.5524 N.pl3   1  UNL1       -0.2752
     31 C          62.4075   86.6072   11.3798 C.3     1  UNL1        0.1109
     32 C          63.2096   86.8568   12.6226 C.3     1  UNL1        0.0939
     33 N          63.5316   88.2617   13.0379 N.3     1  UNL1       -0.2686
     34 C          64.3337   88.5114   14.2806 C.3     1  UNL1        0.0897
     35 C          63.0515   89.4171   12.2104 C.3     1  UNL1        0.0939
     36 C          62.2494   89.1675   10.9677 C.3     1  UNL1        0.1109
     37 C          61.7634   84.2881    5.8705 C.3     1  UNL1        0.1108
     38 N          60.5292   84.6252    6.6534 N.pl3   1  UNL1       -0.3012
     39 H          59.7866   83.9807    6.7034 H       1  UNL1        0.1497
@<TRIPOS>BOND
     1    37    38    1
     2    38    24    1
     3    24    25   ar
     4    25    26   ar
     5    26    22    1
     6    22     1    1
     7     1     2   ar
     8     2     3   ar
     9     3     4   ar
    10     4     7    1
    11     7     8    2
    12     7     9   am
    13     9    11    1
    14    11    12    1
    15    12    13   ar
    16    13    14   ar
    17    14    15   ar
    18    15    16   ar
    19    16    17   ar
    20    17    18    1
    21    18    19    1
    22    18    20    1
    23    18    21    1
    24     4     5   ar
    25     5     6   ar
    26    26    27   ar
    27    27    28   ar
    28    28    30    1
    29    30    31    1
    30    31    32    1
    31    32    33    1
    32    33    34    1
    33    33    35    1
    34    35    36    1
    35    28    29   ar
    36    29    24   ar
    37     6     1   ar
    38    36    30    1
    39    17    12   ar
    40    38    39    1
    41    22    23    1
    42     9    10    1
@<TRIPOS>MOLECULE
*****
 39 42 0 0 0
SMALL
GASTEIGER

@<TRIPOS>ATOM
      1 C          58.8989   90.0630    6.0398 C.ar    1  UNL1        0.0505
      2 C          57.7694   90.8799    5.4854 C.ar    1  UNL1        0.0148
      3 C          58.0408   91.9274    4.4466 C.ar    1  UNL1        0.0058
      4 C          59.4417   92.1580    3.9622 C.ar    1  UNL1        0.0534
      5 C          60.5710   91.3412    4.5166 C.ar    1  UNL1        0.0058
      6 C          60.2996   90.2937    5.5554 C.ar    1  UNL1        0.0148
      7 C          59.7131   93.2055    2.9234 C.2     1  UNL1        0.2461
      8 O          60.0219   94.6129    3.3403 O.2     1  UNL1       -0.2701
      9 N          59.6756   92.8455    1.4677 N.am    1  UNL1       -0.2969
     10 H          59.4729   91.9218    1.1940 H       1  UNL1        0.1501
     11 C          59.9470   93.8930    0.4289 C.3     1  UNL1        0.1165
     12 C          61.0413   93.6869   -0.5761 C.ar    1  UNL1        0.0013
     13 C          60.7229   93.6852   -2.0418 C.ar    1  UNL1       -0.0027
     14 C          61.8172   93.4791   -3.0469 C.ar    1  UNL1       -0.0003
     15 C          63.2300   93.2746   -2.5860 C.ar    1  UNL1       -0.0001
     16 C          63.5484   93.2763   -1.1202 C.ar    1  UNL1        0.0036
     17 C          62.4540   93.4824   -0.1152 C.ar    1  UNL1        0.0691
     18 C          62.7725   93.4841    1.3506 C.3     1  UNL1        0.4183
     19 F          63.0909   93.4858    2.8164 F       1  UNL1       -0.1659
     20 F          62.6281   91.9914    1.3836 F       1  UNL1       -0.1659
     21 F          62.9168   94.9767    1.3175 F       1  UNL1       -0.1659
     22 N          58.6275   89.0155    7.0786 N.pl3   1  UNL1       -0.2824
     23 H          57.6999   88.7772    7.3067 H       1  UNL1        0.1551
     24 C          61.2978   86.2516    8.0687 C.ar    1  UNL1        0.2217
     25 N          60.1559   86.9360    7.3775 N.ar    1  UNL1       -0.1808
     26 C          59.7694   88.3312    7.7699 C.ar    1  UNL1        0.2254
     27 N          60.5247   89.0421    8.8534 N.ar    1  UNL1       -0.1806
     28 C          61.6665   88.3577    9.5446 C.ar    1  UNL1        0.2250
     29 N          62.0531   86.9625    9.1522 N.ar    1  UNL1       -0.1808
     30 N          62.4219   89.0686   10.6282 N.pl3   1  UNL1       -0.2752
     31 C          62.7985   90.5105   10.4580 C.3     1  UNL1        0.1109
     32 C          63.5538   91.2214   11.5416 C.3     1  UNL1        0.0939
     33 N          63.9327   90.4902   12.7954 N.3     1  UNL1       -0.2686
     34 C          64.6880   91.2010   13.8790 C.3     1  UNL1        0.0897
     35 C          63.5561   89.0482   12.9655 C.3     1  UNL1        0.0939
     36 C          62.8008   88.3374   11.8820 C.3     1  UNL1        0.1109
     37 C          61.8358   84.4995    6.2273 C.3     1  UNL1        0.1108
     38 N          61.6843   84.8564    7.6763 N.pl3   1  UNL1       -0.3012
     39 H          61.8386   84.1749    8.3698 H       1  UNL1        0.1497
@<TRIPOS>BOND
     1    37    38    1
     2    38    24    1
     3    24    25   ar
     4    25    26   ar
     5    26    22    1
     6    22     1    1
     7     1     2   ar
     8     2     3   ar
     9     3     4   ar
    10     4     7    1
    11     7     8    2
    12     7     9   am
    13     9    11    1
    14    11    12    1
    15    12    13   ar
    16    13    14   ar
    17    14    15   ar
    18    15    16   ar
    19    16    17   ar
    20    17    18    1
    21    18    19    1
    22    18    20    1
    23    18    21    1
    24     4     5   ar
    25     5     6   ar
    26    26    27   ar
    27    27    28   ar
    28    28    30    1
    29    30    31    1
    30    31    32    1
    31    32    33    1
    32    33    34    1
    33    33    35    1
    34    35    36    1
    35    28    29   ar
    36    29    24   ar
    37     6     1   ar
    38    36    30    1
    39    17    12   ar
    40    38    39    1
    41    22    23    1
    42     9    10    1
@<TRIPOS>MOLECULE
*****
 39 42 0 0 0
SMALL
GASTEIGER

@<TRIPOS>ATOM
      1 C          59.0503   89.9265    6.1735 C.ar    1  UNL1        0.0505
      2 C          57.8566   90.6706    5.6522 C.ar    1  UNL1        0.0148
      3 C          58.0283   91.7095    4.5839 C.ar    1  UNL1        0.0058
      4 C          59.3937   92.0043    4.0370 C.ar    1  UNL1        0.0534
      5 C          60.5872   91.2603    4.5583 C.ar    1  UNL1        0.0058
      6 C          60.4155   90.2214    5.6266 C.ar    1  UNL1        0.0148
      7 C          59.5653   93.0432    2.9687 C.2     1  UNL1        0.2461
      8 O          60.0399   94.4194    3.3302 O.2     1  UNL1       -0.2701
      9 N          59.2625   92.7058    1.5388 N.am    1  UNL1       -0.2969
     10 H          58.9510   91.8025    1.3015 H       1  UNL1        0.1501
     11 C          59.4342   93.7447    0.4705 C.3     1  UNL1        0.1165
     12 C          60.6194   93.6882   -0.4470 C.ar    1  UNL1        0.0013
     13 C          62.0055   93.6173    0.1218 C.ar    1  UNL1       -0.0027
     14 C          63.1909   93.5608   -0.7957 C.ar    1  UNL1       -0.0003
     15 C          62.9900   93.5752   -2.2822 C.ar    1  UNL1       -0.0001
     16 C          61.6038   93.6461   -2.8510 C.ar    1  UNL1        0.0036
     17 C          60.4186   93.7026   -1.9335 C.ar    1  UNL1        0.0691
     18 C          59.0325   93.7734   -2.5023 C.3     1  UNL1        0.4183
     19 F          57.6463   93.8443   -3.0712 F       1  UNL1       -0.1659
     20 F          59.1295   95.2694   -2.5523 F       1  UNL1       -0.1659
     21 F          58.9355   92.2774   -2.4524 F       1  UNL1       -0.1659
     22 N          58.8786   88.8876    7.2418 N.pl3   1  UNL1       -0.2824
     23 H          58.0978   88.2882    7.2246 H       1  UNL1        0.1551
     24 C          61.2901   89.8374   10.2472 C.ar    1  UNL1        0.2217
     25 N          60.2721   89.9630    9.1527 N.ar    1  UNL1       -0.1808
     26 C          59.8966   88.7620    8.3363 C.ar    1  UNL1        0.2254
     27 N          60.5390   87.4354    8.6144 N.ar    1  UNL1       -0.1806
     28 C          61.5570   87.3098    9.7089 C.ar    1  UNL1        0.2250
     29 N          61.9325   88.5108   10.5253 N.ar    1  UNL1       -0.1808
     30 N          62.1995   85.9832    9.9870 N.pl3   1  UNL1       -0.2752
     31 C          62.0644   85.3537   11.3418 C.3     1  UNL1        0.1109
     32 C          62.7069   84.0271   11.6199 C.3     1  UNL1        0.0939
     33 N          63.4845   83.3299   10.5431 N.3     1  UNL1       -0.2686
     34 C          64.1269   82.0033   10.8212 C.3     1  UNL1        0.0897
     35 C          63.6195   83.9594    9.1883 C.3     1  UNL1        0.0939
     36 C          62.9770   85.2860    8.9102 C.3     1  UNL1        0.1109
     37 C          63.0260   91.1243   11.6896 C.3     1  UNL1        0.1108
     38 N          61.6656   91.0384   11.0636 N.pl3   1  UNL1       -0.3012
     39 H          61.0192   91.7704   11.1886 H       1  UNL1        0.1497
@<TRIPOS>BOND
     1    37    38    1
     2    38    24    1
     3    24    25   ar
     4    25    26   ar
     5    26    22    1
     6    22     1    1
     7     1     2   ar
     8     2     3   ar
     9     3     4   ar
    10     4     7    1
    11     7     8    2
    12     7     9   am
    13     9    11    1
    14    11    12    1
    15    12    13   ar
    16    13    14   ar
    17    14    15   ar
    18    15    16   ar
    19    16    17   ar
    20    17    18    1
    21    18    19    1
    22    18    20    1
    23    18    21    1
    24     4     5   ar
    25     5     6   ar
    26    26    27   ar
    27    27    28   ar
    28    28    30    1
    29    30    31    1
    30    31    32    1
    31    32    33    1
    32    33    34    1
    33    33    35    1
    34    35    36    1
    35    28    29   ar
    36    29    24   ar
    37     6     1   ar
    38    36    30    1
    39    17    12   ar
    40    38    39    1
    41    22    23    1
    42     9    10    1
@<TRIPOS>MOLECULE
*****
 39 42 0 0 0
SMALL
GASTEIGER

@<TRIPOS>ATOM
      1 C          59.0908   90.0207    6.1180 C.ar    1  UNL1        0.0505
      2 C          57.9289   90.7926    5.5663 C.ar    1  UNL1        0.0148
      3 C          58.1458   91.7922    4.4691 C.ar    1  UNL1        0.0058
      4 C          59.5245   92.0198    3.9237 C.ar    1  UNL1        0.0534
      5 C          60.6862   91.2479    4.4754 C.ar    1  UNL1        0.0058
      6 C          60.4694   90.2483    5.5726 C.ar    1  UNL1        0.0148
      7 C          59.7414   93.0194    2.8265 C.2     1  UNL1        0.2461
      8 O          58.9022   92.9637    1.5845 O.2     1  UNL1       -0.2701
      9 N          60.7975   94.0748    2.9713 N.am    1  UNL1       -0.2969
     10 H          61.3483   94.1113    3.7865 H       1  UNL1        0.1501
     11 C          61.0144   95.0743    1.8742 C.3     1  UNL1        0.1165
     12 C          62.3501   95.1681    1.1982 C.ar    1  UNL1        0.0013
     13 C          63.2397   96.3481    1.4556 C.ar    1  UNL1       -0.0027
     14 C          64.5755   96.4419    0.7797 C.ar    1  UNL1       -0.0003
     15 C          65.0217   95.3557   -0.1536 C.ar    1  UNL1       -0.0001
     16 C          64.1321   94.1756   -0.4110 C.ar    1  UNL1        0.0036
     17 C          62.7963   94.0819    0.2649 C.ar    1  UNL1        0.0691
     18 C          61.9067   92.9019    0.0075 C.3     1  UNL1        0.4183
     19 F          61.0171   91.7219   -0.2499 F       1  UNL1       -0.1659
     20 F          62.5514   92.1677    1.1456 F       1  UNL1       -0.1659
     21 F          61.2621   93.6362   -1.1306 F       1  UNL1       -0.1659
     22 N          58.8739   89.0211    7.2152 N.pl3   1  UNL1       -0.2824
     23 H          58.0639   88.4615    7.2183 H       1  UNL1        0.1551
     24 C          61.2890   89.9141   10.2351 C.ar    1  UNL1        0.2217
     25 N          60.2718   90.0609    9.1426 N.ar    1  UNL1       -0.1808
     26 C          59.8911   88.8742    8.3078 C.ar    1  UNL1        0.2254
     27 N          60.5277   87.5407    8.5656 N.ar    1  UNL1       -0.1806
     28 C          61.5449   87.3939    9.6582 C.ar    1  UNL1        0.2250
     29 N          61.9255   88.5806   10.4929 N.ar    1  UNL1       -0.1808
     30 N          62.1814   86.0603    9.9160 N.pl3   1  UNL1       -0.2752
     31 C          62.9103   85.3514    8.8133 C.3     1  UNL1        0.1109
     32 C          63.5469   84.0178    9.0711 C.3     1  UNL1        0.0939
     33 N          63.4545   83.3932   10.4317 N.3     1  UNL1       -0.2686
     34 C          64.0910   82.0597   10.6896 C.3     1  UNL1        0.0897
     35 C          62.7256   84.1022   11.5345 C.3     1  UNL1        0.0939
     36 C          62.0891   85.4357   11.2767 C.3     1  UNL1        0.1109
     37 C          63.0376   91.1807   11.6802 C.3     1  UNL1        0.1108
     38 N          61.6697   91.1008   11.0699 N.pl3   1  UNL1       -0.3012
     39 H          61.0218   91.8272   11.2172 H       1  UNL1        0.1497
@<TRIPOS>BOND
     1    37    38    1
     2    38    24    1
     3    24    25   ar
     4    25    26   ar
     5    26    22    1
     6    22     1    1
     7     1     2   ar
     8     2     3   ar
     9     3     4   ar
    10     4     7    1
    11     7     8    2
    12     7     9   am
    13     9    11    1
    14    11    12    1
    15    12    13   ar
    16    13    14   ar
    17    14    15   ar
    18    15    16   ar
    19    16    17   ar
    20    17    18    1
    21    18    19    1
    22    18    20    1
    23    18    21    1
    24     4     5   ar
    25     5     6   ar
    26    26    27   ar
    27    27    28   ar
    28    28    30    1
    29    30    31    1
    30    31    32    1
    31    32    33    1
    32    33    34    1
    33    33    35    1
    34    35    36    1
    35    28    29   ar
    36    29    24   ar
    37     6     1   ar
    38    36    30    1
    39    17    12   ar
    40    38    39    1
    41    22    23    1
    42     9    10    1
@<TRIPOS>MOLECULE
*****
 39 42 0 0 0
SMALL
GASTEIGER

@<TRIPOS>ATOM
      1 C          59.8258   87.7242    9.1686 C.ar    1  UNL1        0.0505
      2 C          59.2460   87.2142    7.8825 C.ar    1  UNL1        0.0148
      3 C          59.0620   88.1458    6.7214 C.ar    1  UNL1        0.0058
      4 C          59.4578   89.5873    6.8463 C.ar    1  UNL1        0.0534
      5 C          60.0375   90.0972    8.1323 C.ar    1  UNL1        0.0058
      6 C          60.2215   89.1656    9.2935 C.ar    1  UNL1        0.0148
      7 C          59.2738   90.5189    5.6851 C.2     1  UNL1        0.2461
      8 O          57.8928   90.9023    5.2427 O.2     1  UNL1       -0.2701
      9 N          60.4709   91.0671    4.9664 N.am    1  UNL1       -0.2969
     10 H          61.3773   90.8154    5.2568 H       1  UNL1        0.1501
     11 C          60.2869   91.9986    3.8052 C.3     1  UNL1        0.1165
     12 C          61.4358   92.2856    2.8845 C.ar    1  UNL1        0.0013
     13 C          62.8354   91.9451    3.3031 C.ar    1  UNL1       -0.0027
     14 C          63.9844   92.2321    2.3824 C.ar    1  UNL1       -0.0003
     15 C          63.7337   92.8596    1.0432 C.ar    1  UNL1       -0.0001
     16 C          62.3340   93.2001    0.6247 C.ar    1  UNL1        0.0036
     17 C          61.1851   92.9131    1.5454 C.ar    1  UNL1        0.0691
     18 C          59.7856   93.2536    1.1268 C.3     1  UNL1        0.4183
     19 F          58.3859   93.5941    0.7082 F       1  UNL1       -0.1659
     20 F          59.8705   94.5417    1.8906 F       1  UNL1       -0.1659
     21 F          59.7006   91.9655    0.3630 F       1  UNL1       -0.1659
     22 N          60.0098   86.7926   10.3298 N.pl3   1  UNL1       -0.2824
     23 H          59.3368   86.0984   10.5154 H       1  UNL1        0.1551
     24 C          62.9604   85.8418   12.8076 C.ar    1  UNL1        0.2217
     25 N          61.7511   85.7158   11.9293 N.ar    1  UNL1       -0.1808
     26 C          61.2192   86.9187   11.2082 C.ar    1  UNL1        0.2254
     27 N          61.8966   88.2477   11.3654 N.ar    1  UNL1       -0.1806
     28 C          63.1060   88.3738   12.2438 C.ar    1  UNL1        0.2250
     29 N          63.6379   87.1708   12.9649 N.ar    1  UNL1       -0.1808
     30 N          63.7834   89.7029   12.4011 N.pl3   1  UNL1       -0.2752
     31 C          63.7626   90.6933   11.2748 C.3     1  UNL1        0.1109
     32 C          64.4401   92.0223   11.4321 C.3     1  UNL1        0.0939
     33 N          65.1384   92.3609   12.7157 N.3     1  UNL1       -0.2686
     34 C          65.8159   93.6899   12.8730 C.3     1  UNL1        0.0897
     35 C          65.1592   91.3704   13.8421 C.3     1  UNL1        0.0939
     36 C          64.4818   90.0414   13.6847 C.3     1  UNL1        0.1109
     37 C          62.6383   83.9315   14.5387 C.3     1  UNL1        0.1108
     38 N          63.4924   84.6389   13.5287 N.pl3   1  UNL1       -0.3012
     39 H          64.4020   84.3137   13.3391 H       1  UNL1        0.1497
@<TRIPOS>BOND
     1    37    38    1
     2    38    24    1
     3    24    25   ar
     4    25    26   ar
     5    26    22    1
     6    22     1    1
     7     1     2   ar
     8     2     3   ar
     9     3     4   ar
    10     4     7    1
    11     7     8    2
    12     7     9   am
    13     9    11    1
    14    11    12    1
    15    12    13   ar
    16    13    14   ar
    17    14    15   ar
    18    15    16   ar
    19    16    17   ar
    20    17    18    1
    21    18    19    1
    22    18    20    1
    23    18    21    1
    24     4     5   ar
    25     5     6   ar
    26    26    27   ar
    27    27    28   ar
    28    28    30    1
    29    30    31    1
    30    31    32    1
    31    32    33    1
    32    33    34    1
    33    33    35    1
    34    35    36    1
    35    28    29   ar
    36    29    24   ar
    37     6     1   ar
    38    36    30    1
    39    17    12   ar
    40    38    39    1
    41    22    23    1
    42     9    10    1
