@<TRIPOS>MOLECULE
*****
 27 29 0 0 0
SMALL
GASTEIGER

@<TRIPOS>ATOM
      1 C          65.3214   91.1245   14.7017 C.ar    1  UNL1        0.0522
      2 C          66.3081   91.9047   15.5189 C.ar    1  UNL1        0.0148
      3 C          66.9757   93.1143   14.9348 C.ar    1  UNL1        0.0028
      4 C          66.6567   93.5437   13.5335 C.ar    1  UNL1        0.0173
      5 C          65.6700   92.7636   12.7163 C.ar    1  UNL1        0.0616
      6 C          65.0024   91.5540   13.3004 C.ar    1  UNL1        0.0363
      7 C          64.0791   90.9877   12.2627 C.ar    1  UNL1        0.0437
      8 C          64.1761   91.8473   11.0372 C.ar    1  UNL1        0.0438
      9 C          63.4222   91.6449    9.7564 C.3     1  UNL1        0.0506
     10 N          65.1593   92.9449   11.3176 N.ar    1  UNL1       -0.3248
     11 C          62.9281   88.8667   16.9207 C.3     1  UNL1        0.0949
     12 C          63.5957   90.0763   16.3366 C.2     1  UNL1        0.2266
     13 O          63.2052   91.4474   16.8034 O.2     1  UNL1       -0.2748
     14 N          64.6538   89.9149   15.2858 N.am    1  UNL1       -0.2839
     15 H          64.9102   89.0151   14.9795 H       1  UNL1        0.1549
     16 S          63.2112   89.7748   12.4224 S.3     1  UNL1       -0.0857
     17 C          62.2380   89.4016   11.3436 C.ar    1  UNL1        0.0295
     18 C          60.9883   90.2081   11.1492 C.ar    1  UNL1        0.0073
     19 C          60.0151   89.8348   10.0705 C.ar    1  UNL1        0.0119
     20 C          60.2917   88.6551    9.1862 C.ar    1  UNL1        0.0577
     21 CL         59.3185   88.2820    8.1075 Cl      1  UNL1       -0.0822
     22 C          61.5414   87.8486    9.3807 C.ar    1  UNL1        0.0119
     23 C          62.5145   88.2219   10.4594 C.ar    1  UNL1        0.0073
     24 C          65.5613   94.0327   10.3663 C.3     1  UNL1        0.1475
     25 C          66.8799   93.9576    9.6550 C.2     1  UNL1        0.0732
     26 O          67.9724   93.0808   10.1912 O.co2   1  UNL1       -0.5472
     27 O          67.1058   94.7594    8.4075 O.co2   1  UNL1       -0.5472
@<TRIPOS>UNITY_ATOM_ATTR
26 1
charge -1
@<TRIPOS>BOND
     1    11    12    1
     2    12    13    2
     3    12    14   am
     4    14     1    1
     5     1     2   ar
     6     2     3   ar
     7     3     4   ar
     8     4     5   ar
     9     5     6   ar
    10     6     7   ar
    11     7    16    1
    12    16    17    1
    13    17    18   ar
    14    18    19   ar
    15    19    20   ar
    16    20    21    1
    17    20    22   ar
    18    22    23   ar
    19     7     8   ar
    20     8     9    1
    21     8    10   ar
    22    10    24    1
    23    24    25    1
    24    25    26   ar
    25    25    27   ar
    26     6     1   ar
    27    23    17   ar
    28    10     5   ar
    29    14    15    1
@<TRIPOS>MOLECULE
*****
 27 29 0 0 0
SMALL
GASTEIGER

@<TRIPOS>ATOM
      1 C          62.9135   89.1884   12.5529 C.ar    1  UNL1        0.0522
      2 C          63.7129   89.9637   13.5578 C.ar    1  UNL1        0.0148
      3 C          64.5666   89.2401   14.5565 C.ar    1  UNL1        0.0028
      4 C          64.6211   87.7411   14.5503 C.ar    1  UNL1        0.0173
      5 C          63.8218   86.9658   13.5454 C.ar    1  UNL1        0.0616
      6 C          62.9680   87.6894   12.5467 C.ar    1  UNL1        0.0363
      7 C          62.2952   86.6642   11.6828 C.ar    1  UNL1        0.0437
      8 C          62.7331   85.3069   12.1476 C.ar    1  UNL1        0.0438
      9 C          62.3031   83.9938   11.5638 C.3     1  UNL1        0.0506
     10 N          63.6766   85.4934   13.2988 N.ar    1  UNL1       -0.3248
     11 C          59.7277   90.7556   10.7796 C.3     1  UNL1        0.0949
     12 C          60.5815   90.0319   11.7783 C.2     1  UNL1        0.2266
     13 O          59.9569   89.4281   13.0012 O.2     1  UNL1       -0.2748
     14 N          62.0598   89.9120   11.5542 N.am    1  UNL1       -0.2839
     15 H          62.4697   90.3083   10.7516 H       1  UNL1        0.1549
     16 S          61.3503   86.9467   10.5526 S.3     1  UNL1       -0.0857
     17 C          61.5157   86.2368    9.2415 C.ar    1  UNL1        0.0295
     18 C          60.3397   86.0698    8.3255 C.ar    1  UNL1        0.0073
     19 C          60.5052   85.3600    7.0145 C.ar    1  UNL1        0.0119
     20 C          61.8466   84.8173    6.6195 C.ar    1  UNL1        0.0577
     21 CL         62.0120   84.1075    5.3084 Cl      1  UNL1       -0.0822
     22 C          63.0226   84.9844    7.5355 C.ar    1  UNL1        0.0119
     23 C          62.8572   85.6942    8.8465 C.ar    1  UNL1        0.0073
     24 C          64.3557   84.3994   14.0682 C.3     1  UNL1        0.1475
     25 C          63.5429   83.4497   14.8975 C.2     1  UNL1        0.0732
     26 O          63.7166   81.9694   14.7292 O.co2   1  UNL1       -0.5472
     27 O          62.5565   83.9805   15.8952 O.co2   1  UNL1       -0.5472
@<TRIPOS>UNITY_ATOM_ATTR
26 1
charge -1
@<TRIPOS>BOND
     1    11    12    1
     2    12    13    2
     3    12    14   am
     4    14     1    1
     5     1     2   ar
     6     2     3   ar
     7     3     4   ar
     8     4     5   ar
     9     5     6   ar
    10     6     7   ar
    11     7    16    1
    12    16    17    1
    13    17    18   ar
    14    18    19   ar
    15    19    20   ar
    16    20    21    1
    17    20    22   ar
    18    22    23   ar
    19     7     8   ar
    20     8     9    1
    21     8    10   ar
    22    10    24    1
    23    24    25    1
    24    25    26   ar
    25    25    27   ar
    26     6     1   ar
    27    23    17   ar
    28    10     5   ar
    29    14    15    1
@<TRIPOS>MOLECULE
*****
 27 29 0 0 0
SMALL
GASTEIGER

@<TRIPOS>ATOM
      1 C          63.1816   85.6706   13.4096 C.ar    1  UNL1        0.0522
      2 C          64.1751   85.5885   14.5303 C.ar    1  UNL1        0.0148
      3 C          64.9207   86.8161   14.9630 C.ar    1  UNL1        0.0028
      4 C          64.6728   88.1257   14.2750 C.ar    1  UNL1        0.0173
      5 C          63.6792   88.2077   13.1542 C.ar    1  UNL1        0.0616
      6 C          62.9336   86.9801   12.7216 C.ar    1  UNL1        0.0363
      7 C          62.0215   87.3650   11.5947 C.ar    1  UNL1        0.0437
      8 C          62.2033   88.8304   11.3308 C.ar    1  UNL1        0.0438
      9 C          61.4865   89.6338   10.2865 C.3     1  UNL1        0.0506
     10 N          63.2279   89.3512   12.2947 N.ar    1  UNL1       -0.3248
     11 C          62.4208   82.0940   11.8670 C.3     1  UNL1        0.0949
     12 C          63.1664   83.3216   12.2997 C.2     1  UNL1        0.2266
     13 O          64.6426   83.4277   12.0550 O.2     1  UNL1       -0.2748
     14 N          62.4360   84.4430   12.9770 N.am    1  UNL1       -0.2839
     15 H          61.4671   84.3734   13.1375 H       1  UNL1        0.1549
     16 S          61.0908   86.4458   10.8605 S.3     1  UNL1       -0.0857
     17 C          61.4585   85.9381    9.4976 C.ar    1  UNL1        0.0295
     18 C          62.8104   85.3323    9.2625 C.ar    1  UNL1        0.0073
     19 C          63.1780   84.8247    7.8997 C.ar    1  UNL1        0.0119
     20 C          62.1938   84.9229    6.7721 C.ar    1  UNL1        0.0577
     21 CL         62.5614   84.4153    5.4093 Cl      1  UNL1       -0.0822
     22 C          60.8418   85.5288    7.0072 C.ar    1  UNL1        0.0119
     23 C          60.4743   86.0364    8.3700 C.ar    1  UNL1        0.0073
     24 C          63.7155   90.7669   12.3835 C.3     1  UNL1        0.1475
     25 C          64.3579   91.2611   13.6458 C.2     1  UNL1        0.0732
     26 O          63.5525   91.3633   14.9070 O.co2   1  UNL1       -0.5472
     27 O          65.8058   91.6532   13.6467 O.co2   1  UNL1       -0.5472
@<TRIPOS>UNITY_ATOM_ATTR
26 1
charge -1
@<TRIPOS>BOND
     1    11    12    1
     2    12    13    2
     3    12    14   am
     4    14     1    1
     5     1     2   ar
     6     2     3   ar
     7     3     4   ar
     8     4     5   ar
     9     5     6   ar
    10     6     7   ar
    11     7    16    1
    12    16    17    1
    13    17    18   ar
    14    18    19   ar
    15    19    20   ar
    16    20    21    1
    17    20    22   ar
    18    22    23   ar
    19     7     8   ar
    20     8     9    1
    21     8    10   ar
    22    10    24    1
    23    24    25    1
    24    25    26   ar
    25    25    27   ar
    26     6     1   ar
    27    23    17   ar
    28    10     5   ar
    29    14    15    1
@<TRIPOS>MOLECULE
*****
 27 29 0 0 0
SMALL
GASTEIGER

@<TRIPOS>ATOM
      1 C          63.2994   84.6583   12.4921 C.ar    1  UNL1        0.0522
      2 C          63.9514   83.3079   12.5294 C.ar    1  UNL1        0.0148
      3 C          64.1984   82.5588   11.2535 C.ar    1  UNL1        0.0028
      4 C          63.7934   83.1601    9.9404 C.ar    1  UNL1        0.0173
      5 C          63.1415   84.5104    9.9031 C.ar    1  UNL1        0.0616
      6 C          62.8944   85.2595   11.1790 C.ar    1  UNL1        0.0363
      7 C          62.2377   86.5626   10.8317 C.ar    1  UNL1        0.0437
      8 C          62.0789   86.6190    9.3412 C.ar    1  UNL1        0.0438
      9 C          61.4686   87.7458    8.5615 C.3     1  UNL1        0.0506
     10 N          62.6374   85.3506    8.7673 N.ar    1  UNL1       -0.3248
     11 C          63.9231   86.3579   16.0237 C.3     1  UNL1        0.0949
     12 C          64.1701   85.6089   14.7478 C.2     1  UNL1        0.2266
     13 O          65.5349   85.0613   14.4518 O.2     1  UNL1       -0.2748
     14 N          63.0524   85.4073   13.7680 N.am    1  UNL1       -0.2839
     15 H          62.1567   85.7667   13.9623 H       1  UNL1        0.1549
     16 S          61.8142   87.6233   11.8042 S.3     1  UNL1       -0.0857
     17 C          62.6591   88.8483   11.9929 C.ar    1  UNL1        0.0295
     18 C          63.5178   88.9863   13.2150 C.ar    1  UNL1        0.0073
     19 C          64.3626   90.2113   13.4036 C.ar    1  UNL1        0.0119
     20 C          64.3487   91.2984   12.3702 C.ar    1  UNL1        0.0577
     21 CL         65.1935   92.5234   12.5589 Cl      1  UNL1       -0.0822
     22 C          63.4900   91.1605   11.1480 C.ar    1  UNL1        0.0119
     23 C          62.6452   89.9354   10.9594 C.ar    1  UNL1        0.0073
     24 C          62.6838   84.9864    7.3129 C.3     1  UNL1        0.1475
     25 C          61.4107   84.7205    6.5654 C.2     1  UNL1        0.0732
     26 O          60.1004   85.1896    7.1249 O.co2   1  UNL1       -0.5472
     27 O          61.4480   83.9856    5.2583 O.co2   1  UNL1       -0.5472
@<TRIPOS>UNITY_ATOM_ATTR
26 1
charge -1
@<TRIPOS>BOND
     1    11    12    1
     2    12    13    2
     3    12    14   am
     4    14     1    1
     5     1     2   ar
     6     2     3   ar
     7     3     4   ar
     8     4     5   ar
     9     5     6   ar
    10     6     7   ar
    11     7    16    1
    12    16    17    1
    13    17    18   ar
    14    18    19   ar
    15    19    20   ar
    16    20    21    1
    17    20    22   ar
    18    22    23   ar
    19     7     8   ar
    20     8     9    1
    21     8    10   ar
    22    10    24    1
    23    24    25    1
    24    25    26   ar
    25    25    27   ar
    26     6     1   ar
    27    23    17   ar
    28    10     5   ar
    29    14    15    1
@<TRIPOS>MOLECULE
*****
 27 29 0 0 0
SMALL
GASTEIGER

@<TRIPOS>ATOM
      1 C          64.1945   87.9423   14.3931 C.ar    1  UNL1        0.0522
      2 C          64.6558   86.6538   15.0071 C.ar    1  UNL1        0.0148
      3 C          64.3534   85.3498   14.3301 C.ar    1  UNL1        0.0028
      4 C          63.5898   85.3343   13.0392 C.ar    1  UNL1        0.0173
      5 C          63.1285   86.6228   12.4252 C.ar    1  UNL1        0.0616
      6 C          63.4309   87.9268   13.1022 C.ar    1  UNL1        0.0363
      7 C          62.8517   89.0287   12.2653 C.ar    1  UNL1        0.0437
      8 C          62.1914   88.4058   11.0712 C.ar    1  UNL1        0.0438
      9 C          61.4842   89.1408    9.9713 C.3     1  UNL1        0.0506
     10 N          62.3625   86.9189   11.1700 N.ar    1  UNL1       -0.3248
     11 C          63.7544   91.2164   16.5923 C.3     1  UNL1        0.0949
     12 C          63.4520   89.9124   15.9153 C.2     1  UNL1        0.2266
     13 O          62.1048   89.2746   16.0837 O.2     1  UNL1       -0.2748
     14 N          64.4969   89.2462   15.0701 N.am    1  UNL1       -0.2839
     15 H          65.3811   89.6648   14.9596 H       1  UNL1        0.1549
     16 S          62.9207   90.4960   12.5693 S.3     1  UNL1       -0.0857
     17 C          64.0630   91.3170   12.0483 C.ar    1  UNL1        0.0295
     18 C          64.0906   91.7349   10.6080 C.ar    1  UNL1        0.0073
     19 C          65.2328   92.5558   10.0871 C.ar    1  UNL1        0.0119
     20 C          66.3474   92.9588   11.0064 C.ar    1  UNL1        0.0577
     21 CL         67.4896   93.7797   10.4854 Cl      1  UNL1       -0.0822
     22 C          66.3198   92.5409   12.4468 C.ar    1  UNL1        0.0119
     23 C          65.1776   91.7199   12.9677 C.ar    1  UNL1        0.0073
     24 C          61.8564   85.9059   10.1863 C.3     1  UNL1        0.1475
     25 C          62.8260   85.1073    9.3662 C.2     1  UNL1        0.0732
     26 O          63.5948   83.9843    9.9967 O.co2   1  UNL1       -0.5472
     27 O          63.0266   85.4319    7.9155 O.co2   1  UNL1       -0.5472
@<TRIPOS>UNITY_ATOM_ATTR
26 1
charge -1
@<TRIPOS>BOND
     1    11    12    1
     2    12    13    2
     3    12    14   am
     4    14     1    1
     5     1     2   ar
     6     2     3   ar
     7     3     4   ar
     8     4     5   ar
     9     5     6   ar
    10     6     7   ar
    11     7    16    1
    12    16    17    1
    13    17    18   ar
    14    18    19   ar
    15    19    20   ar
    16    20    21    1
    17    20    22   ar
    18    22    23   ar
    19     7     8   ar
    20     8     9    1
    21     8    10   ar
    22    10    24    1
    23    24    25    1
    24    25    26   ar
    25    25    27   ar
    26     6     1   ar
    27    23    17   ar
    28    10     5   ar
    29    14    15    1
@<TRIPOS>MOLECULE
*****
 27 29 0 0 0
SMALL
GASTEIGER

@<TRIPOS>ATOM
      1 C          62.3944   90.4328   12.0175 C.ar    1  UNL1        0.0522
      2 C          62.2095   90.6622   10.5468 C.ar    1  UNL1        0.0148
      3 C          63.2304   91.4452    9.7756 C.ar    1  UNL1        0.0028
      4 C          64.4362   91.9988   10.4752 C.ar    1  UNL1        0.0173
      5 C          64.6211   91.7695   11.9459 C.ar    1  UNL1        0.0616
      6 C          63.6002   90.9865   12.7171 C.ar    1  UNL1        0.0363
      7 C          64.0484   90.9226   14.1472 C.ar    1  UNL1        0.0437
      8 C          65.3462   91.6661   14.2598 C.ar    1  UNL1        0.0438
      9 C          66.1492   91.8534   15.5129 C.3     1  UNL1        0.0506
     10 N          65.7002   92.1895   12.8994 N.ar    1  UNL1       -0.3248
     11 C          58.9036   88.9453   13.1801 C.3     1  UNL1        0.0949
     12 C          59.9245   89.7283   12.4090 C.2     1  UNL1        0.2266
     13 O          59.4963   90.5898   11.2580 O.2     1  UNL1       -0.2748
     14 N          61.3735   89.6499   12.7887 N.am    1  UNL1       -0.2839
     15 H          61.6545   89.0845   13.5441 H       1  UNL1        0.1549
     16 S          63.3255   90.2358   15.2678 S.3     1  UNL1       -0.0857
     17 C          63.5004   88.7613   15.4808 C.ar    1  UNL1        0.0295
     18 C          62.9640   88.1142   16.7232 C.ar    1  UNL1        0.0073
     19 C          63.1388   86.6397   16.9361 C.ar    1  UNL1        0.0119
     20 C          63.8502   85.8124   15.9068 C.ar    1  UNL1        0.0577
     21 CL         64.0250   84.3380   16.1198 Cl      1  UNL1       -0.0822
     22 C          64.3866   86.4595   14.6644 C.ar    1  UNL1        0.0119
     23 C          64.2117   87.9340   14.4515 C.ar    1  UNL1        0.0073
     24 C          66.9192   92.9920   12.5532 C.3     1  UNL1        0.1475
     25 C          68.0925   92.3279   11.8953 C.2     1  UNL1        0.0732
     26 O          69.1197   91.6219   12.7298 O.co2   1  UNL1       -0.5472
     27 O          68.2384   92.3699   10.4030 O.co2   1  UNL1       -0.5472
@<TRIPOS>UNITY_ATOM_ATTR
26 1
charge -1
@<TRIPOS>BOND
     1    11    12    1
     2    12    13    2
     3    12    14   am
     4    14     1    1
     5     1     2   ar
     6     2     3   ar
     7     3     4   ar
     8     4     5   ar
     9     5     6   ar
    10     6     7   ar
    11     7    16    1
    12    16    17    1
    13    17    18   ar
    14    18    19   ar
    15    19    20   ar
    16    20    21    1
    17    20    22   ar
    18    22    23   ar
    19     7     8   ar
    20     8     9    1
    21     8    10   ar
    22    10    24    1
    23    24    25    1
    24    25    26   ar
    25    25    27   ar
    26     6     1   ar
    27    23    17   ar
    28    10     5   ar
    29    14    15    1
@<TRIPOS>MOLECULE
*****
 27 29 0 0 0
SMALL
GASTEIGER

@<TRIPOS>ATOM
      1 C          66.0658   92.7967   13.0631 C.ar    1  UNL1        0.0522
      2 C          66.7938   93.6272   12.0482 C.ar    1  UNL1        0.0148
      3 C          66.3345   93.6394   10.6203 C.ar    1  UNL1        0.0028
      4 C          65.1471   92.8211   10.2074 C.ar    1  UNL1        0.0173
      5 C          64.4191   91.9906   11.2224 C.ar    1  UNL1        0.0616
      6 C          64.8785   91.9784   12.6503 C.ar    1  UNL1        0.0363
      7 C          63.9686   91.0693   13.4221 C.ar    1  UNL1        0.0437
      8 C          62.9470   90.5196   12.4713 C.ar    1  UNL1        0.0438
      9 C          61.8411   89.5677   12.8189 C.3     1  UNL1        0.0506
     10 N          63.2254   91.0890   11.1118 N.ar    1  UNL1       -0.3248
     11 C          68.4069   92.4262   16.2463 C.3     1  UNL1        0.0949
     12 C          67.9475   92.4384   14.8184 C.2     1  UNL1        0.2266
     13 O          68.9106   92.1045   13.7178 O.2     1  UNL1       -0.2748
     14 N          66.5252   92.7845   14.4910 N.am    1  UNL1       -0.2839
     15 H          65.8931   93.0036   15.2133 H       1  UNL1        0.1549
     16 S          64.0638   90.7635   14.8875 S.3     1  UNL1       -0.0857
     17 C          63.8770   89.3568   15.3739 C.ar    1  UNL1        0.0295
     18 C          63.0909   89.0936   16.6240 C.ar    1  UNL1        0.0073
     19 C          62.9042   87.6870   17.1102 C.ar    1  UNL1        0.0119
     20 C          63.5035   86.5436   16.3465 C.ar    1  UNL1        0.0577
     21 CL         63.3168   85.1370   16.8328 Cl      1  UNL1       -0.0822
     22 C          64.2897   86.8068   15.0964 C.ar    1  UNL1        0.0119
     23 C          64.4764   88.2134   14.6101 C.ar    1  UNL1        0.0073
     24 C          62.4468   90.8065    9.8612 C.3     1  UNL1        0.1475
     25 C          61.6001   89.5717    9.7677 C.2     1  UNL1        0.0732
     26 O          60.1052   89.6887    9.7276 O.co2   1  UNL1       -0.5472
     27 O          62.2484   88.2201    9.7143 O.co2   1  UNL1       -0.5472
@<TRIPOS>UNITY_ATOM_ATTR
26 1
charge -1
@<TRIPOS>BOND
     1    11    12    1
     2    12    13    2
     3    12    14   am
     4    14     1    1
     5     1     2   ar
     6     2     3   ar
     7     3     4   ar
     8     4     5   ar
     9     5     6   ar
    10     6     7   ar
    11     7    16    1
    12    16    17    1
    13    17    18   ar
    14    18    19   ar
    15    19    20   ar
    16    20    21    1
    17    20    22   ar
    18    22    23   ar
    19     7     8   ar
    20     8     9    1
    21     8    10   ar
    22    10    24    1
    23    24    25    1
    24    25    26   ar
    25    25    27   ar
    26     6     1   ar
    27    23    17   ar
    28    10     5   ar
    29    14    15    1
@<TRIPOS>MOLECULE
*****
 27 29 0 0 0
SMALL
GASTEIGER

@<TRIPOS>ATOM
      1 C          63.1956   85.9956   12.3605 C.ar    1  UNL1        0.0522
      2 C          63.5468   84.6076   11.9131 C.ar    1  UNL1        0.0148
      3 C          63.1413   84.1341   10.5488 C.ar    1  UNL1        0.0028
      4 C          62.3846   85.0487    9.6318 C.ar    1  UNL1        0.0173
      5 C          62.0334   86.4367   10.0791 C.ar    1  UNL1        0.0616
      6 C          62.4389   86.9101   11.4435 C.ar    1  UNL1        0.0363
      7 C          61.9559   88.3207   11.6071 C.ar    1  UNL1        0.0437
      8 C          61.2518   88.7192   10.3440 C.ar    1  UNL1        0.0438
      9 C          60.6122   90.0486   10.0728 C.3     1  UNL1        0.0506
     10 N          61.2997   87.5547    9.3997 N.ar    1  UNL1       -0.3248
     11 C          63.7914   86.0610   16.2836 C.3     1  UNL1        0.0949
     12 C          63.3858   85.5876   14.9192 C.2     1  UNL1        0.2266
     13 O          62.7649   84.2327   14.7494 O.2     1  UNL1       -0.2748
     14 N          63.6012   86.4690   13.7248 N.am    1  UNL1       -0.2839
     15 H          64.0087   87.3582   13.8363 H       1  UNL1        0.1549
     16 S          62.1440   89.1818   12.8209 S.3     1  UNL1       -0.0857
     17 C          63.3450   90.0741   12.9288 C.ar    1  UNL1        0.0295
     18 C          63.6632   91.0399   11.8260 C.ar    1  UNL1        0.0073
     19 C          64.8641   91.9321   11.9339 C.ar    1  UNL1        0.0119
     20 C          65.7468   91.8585   13.1445 C.ar    1  UNL1        0.0577
     21 CL         66.9478   92.7508   13.2523 Cl      1  UNL1       -0.0822
     22 C          65.4286   90.8927   14.2472 C.ar    1  UNL1        0.0119
     23 C          64.2277   90.0005   14.1393 C.ar    1  UNL1        0.0073
     24 C          60.7164   87.5153    8.0183 C.3     1  UNL1        0.1475
     25 C          59.6811   86.4870    7.6704 C.2     1  UNL1        0.0732
     26 O          58.2356   86.7442    7.9778 O.co2   1  UNL1       -0.5472
     27 O          60.0913   85.2015    7.0152 O.co2   1  UNL1       -0.5472
@<TRIPOS>UNITY_ATOM_ATTR
26 1
charge -1
@<TRIPOS>BOND
     1    11    12    1
     2    12    13    2
     3    12    14   am
     4    14     1    1
     5     1     2   ar
     6     2     3   ar
     7     3     4   ar
     8     4     5   ar
     9     5     6   ar
    10     6     7   ar
    11     7    16    1
    12    16    17    1
    13    17    18   ar
    14    18    19   ar
    15    19    20   ar
    16    20    21    1
    17    20    22   ar
    18    22    23   ar
    19     7     8   ar
    20     8     9    1
    21     8    10   ar
    22    10    24    1
    23    24    25    1
    24    25    26   ar
    25    25    27   ar
    26     6     1   ar
    27    23    17   ar
    28    10     5   ar
    29    14    15    1
@<TRIPOS>MOLECULE
*****
 27 29 0 0 0
SMALL
GASTEIGER

@<TRIPOS>ATOM
      1 C          61.5769   87.6848   10.6517 C.ar    1  UNL1        0.0522
      2 C          61.1788   86.6221    9.6709 C.ar    1  UNL1        0.0148
      3 C          61.6641   85.2144    9.8522 C.ar    1  UNL1        0.0028
      4 C          62.5474   84.8694   11.0143 C.ar    1  UNL1        0.0173
      5 C          62.9455   85.9321   11.9952 C.ar    1  UNL1        0.0616
      6 C          62.4603   87.3398   11.8139 C.ar    1  UNL1        0.0363
      7 C          63.0140   88.1689   12.9346 C.ar    1  UNL1        0.0437
      8 C          63.8415   87.2737   13.8085 C.ar    1  UNL1        0.0438
      9 C          64.5814   87.6881   15.0458 C.3     1  UNL1        0.0506
     10 N          63.7992   85.8913   13.2279 N.ar    1  UNL1       -0.3248
     11 C          59.4624   91.0113   11.1138 C.3     1  UNL1        0.0949
     12 C          59.9477   89.6036   11.2951 C.2     1  UNL1        0.2266
     13 O          59.2888   88.7069   12.3011 O.2     1  UNL1       -0.2748
     14 N          61.0917   89.0926   10.4704 N.am    1  UNL1       -0.2839
     15 H          61.5240   89.6811    9.8102 H       1  UNL1        0.1549
     16 S          62.7811   89.6358   13.1445 S.3     1  UNL1       -0.0857
     17 C          63.7686   90.6349   12.6182 C.ar    1  UNL1        0.0295
     18 C          63.6680   91.1135   11.2002 C.ar    1  UNL1        0.0073
     19 C          64.6555   92.1124   10.6740 C.ar    1  UNL1        0.0119
     20 C          65.7436   92.6329   11.5658 C.ar    1  UNL1        0.0577
     21 CL         66.7310   93.6318   11.0396 Cl      1  UNL1       -0.0822
     22 C          65.8441   92.1543   12.9839 C.ar    1  UNL1        0.0119
     23 C          64.8567   91.1553   13.5100 C.ar    1  UNL1        0.0073
     24 C          64.4893   84.6805   13.7827 C.3     1  UNL1        0.1475
     25 C          63.7558   83.7587   14.7114 C.2     1  UNL1        0.0732
     26 O          62.8406   84.3212   15.7583 O.co2   1  UNL1       -0.5472
     27 O          63.9375   82.2744   14.5931 O.co2   1  UNL1       -0.5472
@<TRIPOS>UNITY_ATOM_ATTR
26 1
charge -1
@<TRIPOS>BOND
     1    11    12    1
     2    12    13    2
     3    12    14   am
     4    14     1    1
     5     1     2   ar
     6     2     3   ar
     7     3     4   ar
     8     4     5   ar
     9     5     6   ar
    10     6     7   ar
    11     7    16    1
    12    16    17    1
    13    17    18   ar
    14    18    19   ar
    15    19    20   ar
    16    20    21    1
    17    20    22   ar
    18    22    23   ar
    19     7     8   ar
    20     8     9    1
    21     8    10   ar
    22    10    24    1
    23    24    25    1
    24    25    26   ar
    25    25    27   ar
    26     6     1   ar
    27    23    17   ar
    28    10     5   ar
    29    14    15    1
