@<TRIPOS>MOLECULE
*****
 41 45 0 0 0
SMALL
GASTEIGER

@<TRIPOS>ATOM
      1 C          64.4130   90.3549   13.5837 C.2     1  UNL1        0.0332
      2 C          64.0899   90.3201   15.0480 C.2     1  UNL1        0.0101
      3 C          63.6395   89.0396   15.6864 C.2     1  UNL1        0.0255
      4 C          63.3164   89.0048   17.1508 C.3     1  UNL1        0.0351
      5 C          63.5124   87.7940   14.8604 C.2     1  UNL1        0.2278
      6 N          63.0954   86.3961   15.2100 N.2     1  UNL1       -0.0345
      7 C          63.1609   85.5671   13.9616 C.2     1  UNL1        0.3649
      8 N          63.6183   86.4525   12.8406 N.2     1  UNL1       -0.0380
      9 C          63.8355   87.8289   13.3961 C.2     1  UNL1        0.2184
     10 C          64.2859   89.1093   12.7577 C.3     1  UNL1        0.1186
     11 C          66.2143   95.4768   11.0298 C.2     1  UNL1        0.4050
     12 O          66.9558   96.4986   11.8398 O.2     1  UNL1       -0.2262
     13 N          65.7640   94.1963   11.6683 N.am    1  UNL1       -0.2425
     14 C          65.0225   93.1746   10.8582 C.3     1  UNL1        0.1181
     15 C          64.5722   91.8941   11.4967 C.3     1  UNL1        0.1122
     16 N          64.8634   91.6355   12.9452 N.pl3   1  UNL1       -0.3070
     17 C          65.6048   92.6572   13.7553 C.3     1  UNL1        0.1122
     18 C          66.0552   93.9377   13.1168 C.3     1  UNL1        0.1181
     19 O          65.9231   95.7354    9.5812 O.3     1  UNL1       -0.4345
     20 C          68.0123   94.3662    8.8666 C.3     1  UNL1        0.0513
     21 C          66.9212   95.3401    8.5334 C.3     1  UNL1        0.2102
     22 C          62.8275   84.1086   13.8533 C.3     1  UNL1        0.2250
     23 C          62.8345   83.4352   12.5130 C.2     1  UNL1        0.0436
     24 C          62.5011   81.9767   12.4048 C.2     1  UNL1        0.0288
     25 C          62.1606   81.1917   13.6367 C.2     1  UNL1        0.0896
     26 N          62.1535   81.8651   14.9770 N.am    1  UNL1       -0.1770
     27 C          62.4870   83.3236   15.0853 C.2     1  UNL1        0.2627
     28 O          62.4799   83.9970   16.4256 O.2     1  UNL1       -0.2719
     29 N          63.1750   84.2201   11.2810 N.pl3   1  UNL1       -0.3329
     30 H          64.1105   84.4648   11.0961 H       1  UNL1        0.1466
     31 C          62.0902   84.6323   10.3306 C.3     1  UNL1        0.1211
     32 C          62.3880   85.6062    9.2293 C.3     1  UNL1        0.1522
     33 O          63.4768   85.3105    8.2408 O.3     1  UNL1       -0.3783
     34 H          63.8850   84.4570    8.4550 H       1  UNL1        0.2109
     35 C          61.5971   86.8757    9.1165 C.ar    1  UNL1        0.0067
     36 C          60.3996   86.9358    8.2154 C.ar    1  UNL1       -0.0018
     37 C          59.6087   88.2053    8.1026 C.ar    1  UNL1        0.0006
     38 C          60.0153   89.4149    8.8910 C.ar    1  UNL1        0.0114
     39 C          61.2129   89.3548    9.7922 C.ar    1  UNL1        0.0574
     40 CL         61.6196   90.5643   10.5806 Cl      1  UNL1       -0.0823
     41 C          62.0038   88.0852    9.9050 C.ar    1  UNL1        0.0095
@<TRIPOS>BOND
     1    20    21    1
     2    21    19    1
     3    19    11    1
     4    11    12    2
     5    11    13   am
     6    13    14    1
     7    14    15    1
     8    15    16    1
     9    16     1    1
    10     1     2    2
    11     2     3    1
    12     3     4    1
    13     3     5    2
    14     5     6    1
    15     6     7    2
    16     7    22    1
    17    22    23    1
    18    23    29    1
    19    29    31    1
    20    31    32    1
    21    32    33    1
    22    32    35    1
    23    35    36   ar
    24    36    37   ar
    25    37    38   ar
    26    38    39   ar
    27    39    40    1
    28    39    41   ar
    29    23    24    2
    30    24    25    1
    31    25    26    2
    32    26    27    1
    33    27    28    2
    34     7     8    1
    35     8     9    2
    36     9    10    1
    37    16    17    1
    38    17    18    1
    39    18    13    1
    40    10     1    1
    41     9     5    1
    42    27    22    1
    43    41    35   ar
    44    29    30    1
    45    33    34    1
@<TRIPOS>MOLECULE
*****
 41 45 0 0 0
SMALL
GASTEIGER

@<TRIPOS>ATOM
      1 C          62.2032   93.4660    1.2631 C.2     1  UNL1        0.0332
      2 C          63.0409   94.6684    1.5827 C.2     1  UNL1        0.0101
      3 C          63.8401   95.3345    0.5021 C.2     1  UNL1        0.0255
      4 C          64.6779   96.5370    0.8218 C.3     1  UNL1        0.0351
      5 C          63.8015   94.7980   -0.8981 C.2     1  UNL1        0.2278
      6 N          64.4780   95.2408   -2.1616 N.2     1  UNL1       -0.0345
      7 C          64.0583   94.3119   -3.2621 C.2     1  UNL1        0.3649
      8 N          63.1224   93.2951   -2.6787 N.2     1  UNL1       -0.0380
      9 C          62.9637   93.5955   -1.2177 C.2     1  UNL1        0.2184
     10 C          62.1646   92.9295   -0.1371 C.3     1  UNL1        0.1186
     11 C          59.0067   90.8016    5.5856 C.2     1  UNL1        0.4050
     12 O          57.5245   91.0182    5.6642 O.2     1  UNL1       -0.2262
     13 N          59.8058   91.4677    4.5050 N.am    1  UNL1       -0.2425
     14 C          61.2880   91.2510    4.4264 C.3     1  UNL1        0.1181
     15 C          62.0871   91.9171    3.3458 C.3     1  UNL1        0.1122
     16 N          61.4040   92.7999    2.3438 N.pl3   1  UNL1       -0.3070
     17 C          59.9219   93.0165    2.4223 C.3     1  UNL1        0.1122
     18 C          59.1227   92.3504    3.5030 C.3     1  UNL1        0.1181
     19 O          59.6898   89.9188    6.5877 O.3     1  UNL1       -0.4345
     20 C          59.7118   87.7570    8.0285 C.3     1  UNL1        0.0513
     21 C          58.9860   88.7068    7.1223 C.3     1  UNL1        0.2102
     22 C          64.4973   94.3867   -4.6944 C.3     1  UNL1        0.2250
     23 C          64.2166   95.6195   -5.5015 C.2     1  UNL1        0.0436
     24 C          64.6557   95.6942   -6.9339 C.2     1  UNL1        0.0288
     25 C          65.3755   94.5362   -7.5591 C.2     1  UNL1        0.0896
     26 N          65.6562   93.3034   -6.7520 N.am    1  UNL1       -0.1770
     27 C          65.2171   93.2287   -5.3196 C.2     1  UNL1        0.2627
     28 O          65.4979   91.9959   -4.5125 O.2     1  UNL1       -0.2719
     29 N          63.4968   96.7775   -4.8764 N.pl3   1  UNL1       -0.3329
     30 H          64.0066   97.4863   -4.4214 H       1  UNL1        0.1466
     31 C          62.0004   96.8556   -4.9444 C.3     1  UNL1        0.1211
     32 C          61.1742   95.6234   -4.7232 C.3     1  UNL1        0.1522
     33 O          61.0091   94.6227   -5.8284 O.3     1  UNL1       -0.3783
     34 H          61.4971   94.9223   -6.6114 H       1  UNL1        0.2109
     35 C          60.5131   95.3918   -3.3968 C.ar    1  UNL1        0.0067
     36 C          60.7276   96.3612   -2.2725 C.ar    1  UNL1       -0.0018
     37 C          60.0665   96.1296   -0.9461 C.ar    1  UNL1        0.0006
     38 C          59.1909   94.9286   -0.7440 C.ar    1  UNL1        0.0114
     39 C          58.9764   93.9592   -1.8684 C.ar    1  UNL1        0.0574
     40 CL         58.1008   92.7581   -1.6663 Cl      1  UNL1       -0.0823
     41 C          59.6375   94.1908   -3.1948 C.ar    1  UNL1        0.0095
@<TRIPOS>BOND
     1    20    21    1
     2    21    19    1
     3    19    11    1
     4    11    12    2
     5    11    13   am
     6    13    14    1
     7    14    15    1
     8    15    16    1
     9    16     1    1
    10     1     2    2
    11     2     3    1
    12     3     4    1
    13     3     5    2
    14     5     6    1
    15     6     7    2
    16     7    22    1
    17    22    23    1
    18    23    29    1
    19    29    31    1
    20    31    32    1
    21    32    33    1
    22    32    35    1
    23    35    36   ar
    24    36    37   ar
    25    37    38   ar
    26    38    39   ar
    27    39    40    1
    28    39    41   ar
    29    23    24    2
    30    24    25    1
    31    25    26    2
    32    26    27    1
    33    27    28    2
    34     7     8    1
    35     8     9    2
    36     9    10    1
    37    16    17    1
    38    17    18    1
    39    18    13    1
    40    10     1    1
    41     9     5    1
    42    27    22    1
    43    41    35   ar
    44    29    30    1
    45    33    34    1
@<TRIPOS>MOLECULE
*****
 41 45 0 0 0
SMALL
GASTEIGER

@<TRIPOS>ATOM
      1 C          60.7058   87.5766    8.1041 C.2     1  UNL1        0.0332
      2 C          61.3517   86.4185    7.4032 C.2     1  UNL1        0.0101
      3 C          62.0930   85.3818    8.1944 C.2     1  UNL1        0.0255
      4 C          62.7390   84.2236    7.4934 C.3     1  UNL1        0.0351
      5 C          62.1883   85.5034    9.6864 C.2     1  UNL1        0.2278
      6 N          62.8473   84.6430   10.7234 N.2     1  UNL1       -0.0345
      7 C          62.6085   85.2695   12.0652 C.2     1  UNL1        0.3649
      8 N          61.8020   86.5171   11.8575 N.2     1  UNL1       -0.0380
      9 C          61.5423   86.6616   10.3872 C.2     1  UNL1        0.2184
     10 C          60.8010   87.6983    9.5961 C.3     1  UNL1        0.1186
     11 C          57.7408   91.7234    4.9396 C.2     1  UNL1        0.4050
     12 O          56.2438   91.6751    4.8569 O.2     1  UNL1       -0.2262
     13 N          58.4820   90.6867    5.7307 N.am    1  UNL1       -0.2425
     14 C          59.9789   90.7349    5.8135 C.3     1  UNL1        0.1181
     15 C          60.7202   89.6983    6.6046 C.3     1  UNL1        0.1122
     16 N          59.9644   88.6133    7.3129 N.pl3   1  UNL1       -0.3070
     17 C          58.4676   88.5651    7.2302 C.3     1  UNL1        0.1122
     18 C          57.7263   89.6018    6.4391 C.3     1  UNL1        0.1181
     19 O          58.4965   92.8083    4.2312 O.3     1  UNL1       -0.4345
     20 C          60.1694   93.5414    2.3836 C.3     1  UNL1        0.0513
     21 C          59.3253   92.4801    3.0248 C.3     1  UNL1        0.2102
     22 C          63.0915   84.7413   13.3834 C.3     1  UNL1        0.2250
     23 C          63.7767   85.6578   14.3532 C.2     1  UNL1        0.0436
     24 C          64.2596   85.1295   15.6714 C.2     1  UNL1        0.0288
     25 C          64.0574   83.6846   16.0199 C.2     1  UNL1        0.0896
     26 N          63.3723   82.7680   15.0501 N.am    1  UNL1       -0.1770
     27 C          62.8893   83.2964   13.7319 C.2     1  UNL1        0.2627
     28 O          62.2041   82.3798   12.7622 O.2     1  UNL1       -0.2719
     29 N          63.9789   87.1027   14.0048 N.pl3   1  UNL1       -0.3329
     30 H          63.9049   87.3984   13.0687 H       1  UNL1        0.1466
     31 C          64.2939   88.0972   15.0827 C.3     1  UNL1        0.1211
     32 C          63.7624   89.4968   14.9904 C.3     1  UNL1        0.1522
     33 O          62.9261   90.0562   16.1029 O.3     1  UNL1       -0.3783
     34 H          62.8257   89.3885   16.7993 H       1  UNL1        0.2109
     35 C          64.0670   90.3369   13.7857 C.ar    1  UNL1        0.0067
     36 C          65.1909   91.3293   13.8281 C.ar    1  UNL1       -0.0018
     37 C          65.4955   92.1695   12.6234 C.ar    1  UNL1        0.0006
     38 C          64.6763   92.0171   11.3761 C.ar    1  UNL1        0.0114
     39 C          63.5524   91.0246   11.3337 C.ar    1  UNL1        0.0574
     40 CL         62.7332   90.8722   10.0865 Cl      1  UNL1       -0.0823
     41 C          63.2478   90.1845   12.5384 C.ar    1  UNL1        0.0095
@<TRIPOS>BOND
     1    20    21    1
     2    21    19    1
     3    19    11    1
     4    11    12    2
     5    11    13   am
     6    13    14    1
     7    14    15    1
     8    15    16    1
     9    16     1    1
    10     1     2    2
    11     2     3    1
    12     3     4    1
    13     3     5    2
    14     5     6    1
    15     6     7    2
    16     7    22    1
    17    22    23    1
    18    23    29    1
    19    29    31    1
    20    31    32    1
    21    32    33    1
    22    32    35    1
    23    35    36   ar
    24    36    37   ar
    25    37    38   ar
    26    38    39   ar
    27    39    40    1
    28    39    41   ar
    29    23    24    2
    30    24    25    1
    31    25    26    2
    32    26    27    1
    33    27    28    2
    34     7     8    1
    35     8     9    2
    36     9    10    1
    37    16    17    1
    38    17    18    1
    39    18    13    1
    40    10     1    1
    41     9     5    1
    42    27    22    1
    43    41    35   ar
    44    29    30    1
    45    33    34    1
@<TRIPOS>MOLECULE
*****
 41 45 0 0 0
SMALL
GASTEIGER

@<TRIPOS>ATOM
      1 C          59.7893   92.3538    3.3887 C.2     1  UNL1        0.0332
      2 C          58.3192   92.2476    3.6671 C.2     1  UNL1        0.0101
      3 C          57.8310   91.4065    4.8092 C.2     1  UNL1        0.0255
      4 C          56.3608   91.3002    5.0875 C.3     1  UNL1        0.0351
      5 C          58.8129   90.6717    5.6728 C.2     1  UNL1        0.2278
      6 N          58.6297   89.7736    6.8601 N.2     1  UNL1       -0.0345
      7 C          59.9866   89.3248    7.3155 C.2     1  UNL1        0.3649
      8 N          61.0084   89.9455    6.4097 N.2     1  UNL1       -0.0380
      9 C          60.2830   90.7780    5.3944 C.2     1  UNL1        0.2184
     10 C          60.7712   91.6191    4.2524 C.3     1  UNL1        0.1186
     11 C          61.7424   95.7181   -1.1794 C.2     1  UNL1        0.4050
     12 O          60.7901   96.1462   -2.2564 O.2     1  UNL1       -0.2262
     13 N          61.2541   94.8771   -0.0374 N.am    1  UNL1       -0.2425
     14 C          62.2063   94.4490    1.0397 C.3     1  UNL1        0.1181
     15 C          61.7180   93.6080    2.1817 C.3     1  UNL1        0.1122
     16 N          60.2775   93.1949    2.2466 N.pl3   1  UNL1       -0.3070
     17 C          59.3253   93.6229    1.1697 C.3     1  UNL1        0.1122
     18 C          59.8135   94.4641    0.0276 C.3     1  UNL1        0.1181
     19 O          63.1829   96.1311   -1.2443 O.3     1  UNL1       -0.4345
     20 C          63.8141   93.8881   -2.3934 C.3     1  UNL1        0.0513
     21 C          64.1711   95.2899   -1.9967 C.3     1  UNL1        0.2102
     22 C          60.2717   88.4150    8.4735 C.3     1  UNL1        0.2250
     23 C          60.8976   88.9631    9.7217 C.2     1  UNL1        0.0436
     24 C          61.1826   88.0532   10.8796 C.2     1  UNL1        0.0288
     25 C          60.8419   86.5952   10.7895 C.2     1  UNL1        0.0896
     26 N          60.2160   86.0471    9.5414 N.am    1  UNL1       -0.1770
     27 C          59.9309   86.9570    8.3834 C.2     1  UNL1        0.2627
     28 O          59.3051   86.4088    7.1353 O.2     1  UNL1       -0.2719
     29 N          61.2384   90.4211    9.8119 N.pl3   1  UNL1       -0.3329
     30 H          60.5418   91.0998    9.6589 H       1  UNL1        0.1466
     31 C          62.6404   90.8450   10.1351 C.3     1  UNL1        0.1211
     32 C          63.0616   91.0159   11.5646 C.3     1  UNL1        0.1522
     33 O          62.1461   90.5868   12.6726 O.3     1  UNL1       -0.3783
     34 H          61.3299   90.2230   12.2951 H       1  UNL1        0.2109
     35 C          64.3983   91.6159   11.8860 C.ar    1  UNL1        0.0067
     36 C          64.9539   91.5089   13.2751 C.ar    1  UNL1       -0.0018
     37 C          66.2906   92.1089   13.5966 C.ar    1  UNL1        0.0006
     38 C          67.0717   92.8158   12.5288 C.ar    1  UNL1        0.0114
     39 C          66.5161   92.9227   11.1397 C.ar    1  UNL1        0.0574
     40 CL         67.2972   93.6297   10.0719 Cl      1  UNL1       -0.0823
     41 C          65.1794   92.3228   10.8182 C.ar    1  UNL1        0.0095
@<TRIPOS>BOND
     1    20    21    1
     2    21    19    1
     3    19    11    1
     4    11    12    2
     5    11    13   am
     6    13    14    1
     7    14    15    1
     8    15    16    1
     9    16     1    1
    10     1     2    2
    11     2     3    1
    12     3     4    1
    13     3     5    2
    14     5     6    1
    15     6     7    2
    16     7    22    1
    17    22    23    1
    18    23    29    1
    19    29    31    1
    20    31    32    1
    21    32    33    1
    22    32    35    1
    23    35    36   ar
    24    36    37   ar
    25    37    38   ar
    26    38    39   ar
    27    39    40    1
    28    39    41   ar
    29    23    24    2
    30    24    25    1
    31    25    26    2
    32    26    27    1
    33    27    28    2
    34     7     8    1
    35     8     9    2
    36     9    10    1
    37    16    17    1
    38    17    18    1
    39    18    13    1
    40    10     1    1
    41     9     5    1
    42    27    22    1
    43    41    35   ar
    44    29    30    1
    45    33    34    1
@<TRIPOS>MOLECULE
*****
 41 45 0 0 0
SMALL
GASTEIGER

@<TRIPOS>ATOM
      1 C          59.6933   90.1527    6.3271 C.2     1  UNL1        0.0332
      2 C          58.2291   90.4262    6.1510 C.2     1  UNL1        0.0101
      3 C          57.7559   91.2662    5.0018 C.2     1  UNL1        0.0255
      4 C          56.2915   91.5398    4.8256 C.3     1  UNL1        0.0351
      5 C          58.7471   91.8327    4.0288 C.2     1  UNL1        0.2278
      6 N          58.5790   92.6895    2.8091 N.2     1  UNL1       -0.0345
      7 C          59.9395   92.9454    2.2315 C.2     1  UNL1        0.3649
      8 N          60.9483   92.2469    3.0942 N.2     1  UNL1       -0.0380
      9 C          60.2114   91.5591    4.2050 C.2     1  UNL1        0.2184
     10 C          60.6845   90.7191    5.3542 C.3     1  UNL1        0.1186
     11 C          61.5858   86.7926   10.9237 C.2     1  UNL1        0.4050
     12 O          62.1824   87.4462   12.1348 O.2     1  UNL1       -0.2262
     13 N          61.1127   87.6326    9.7746 N.am    1  UNL1       -0.2425
     14 C          60.5161   86.9791    8.5634 C.3     1  UNL1        0.1181
     15 C          60.0430   87.8191    7.4143 C.3     1  UNL1        0.1122
     16 N          60.1664   89.3127    7.4763 N.pl3   1  UNL1       -0.3070
     17 C          60.7630   89.9663    8.6874 C.3     1  UNL1        0.1122
     18 C          61.2362   89.1262    9.8366 C.3     1  UNL1        0.1181
     19 O          61.4624   85.2990   10.8616 O.3     1  UNL1       -0.4345
     20 C          63.4764   83.6909   10.5336 C.3     1  UNL1        0.0513
     21 C          62.5409   84.4326   11.4416 C.3     1  UNL1        0.2102
     22 C          60.2386   93.7574    1.0063 C.3     1  UNL1        0.2250
     23 C          59.6596   93.3574   -0.3184 C.2     1  UNL1        0.0436
     24 C          59.9588   94.1695   -1.5436 C.2     1  UNL1        0.0288
     25 C          60.8369   95.3815   -1.4442 C.2     1  UNL1        0.0896
     26 N          61.4159   95.7815   -0.1195 N.am    1  UNL1       -0.1770
     27 C          61.1167   94.9695    1.1057 C.2     1  UNL1        0.2627
     28 O          61.6957   95.3695    2.4304 O.2     1  UNL1       -0.2719
     29 N          58.7815   92.1454   -0.4179 N.pl3   1  UNL1       -0.3329
     30 H          59.1350   91.2600   -0.1723 H       1  UNL1        0.1466
     31 C          57.3649   92.2824   -0.8917 C.3     1  UNL1        0.1211
     32 C          57.0776   92.4758   -2.3512 C.3     1  UNL1        0.1522
     33 O          57.7128   91.5729   -3.3667 O.3     1  UNL1       -0.3783
     34 H          58.2755   90.9243   -2.9156 H       1  UNL1        0.2109
     35 C          56.1552   93.5721   -2.7951 C.ar    1  UNL1        0.0067
     36 C          56.1209   93.9859   -4.2365 C.ar    1  UNL1       -0.0018
     37 C          55.1984   95.0822   -4.6804 C.ar    1  UNL1        0.0006
     38 C          54.3101   95.7649   -3.6829 C.ar    1  UNL1        0.0114
     39 C          54.3444   95.3511   -2.2415 C.ar    1  UNL1        0.0574
     40 CL         53.4561   96.0338   -1.2440 Cl      1  UNL1       -0.0823
     41 C          55.2669   94.2548   -1.7976 C.ar    1  UNL1        0.0095
@<TRIPOS>BOND
     1    20    21    1
     2    21    19    1
     3    19    11    1
     4    11    12    2
     5    11    13   am
     6    13    14    1
     7    14    15    1
     8    15    16    1
     9    16     1    1
    10     1     2    2
    11     2     3    1
    12     3     4    1
    13     3     5    2
    14     5     6    1
    15     6     7    2
    16     7    22    1
    17    22    23    1
    18    23    29    1
    19    29    31    1
    20    31    32    1
    21    32    33    1
    22    32    35    1
    23    35    36   ar
    24    36    37   ar
    25    37    38   ar
    26    38    39   ar
    27    39    40    1
    28    39    41   ar
    29    23    24    2
    30    24    25    1
    31    25    26    2
    32    26    27    1
    33    27    28    2
    34     7     8    1
    35     8     9    2
    36     9    10    1
    37    16    17    1
    38    17    18    1
    39    18    13    1
    40    10     1    1
    41     9     5    1
    42    27    22    1
    43    41    35   ar
    44    29    30    1
    45    33    34    1
@<TRIPOS>MOLECULE
*****
 41 45 0 0 0
SMALL
GASTEIGER

@<TRIPOS>ATOM
      1 C          59.6917   90.0894    6.4130 C.2     1  UNL1        0.0332
      2 C          58.2173   90.3065    6.2438 C.2     1  UNL1        0.0101
      3 C          57.7085   91.1533    5.1150 C.2     1  UNL1        0.0255
      4 C          56.2339   91.3704    4.9458 C.3     1  UNL1        0.0351
      5 C          58.6743   91.7828    4.1554 C.2     1  UNL1        0.2278
      6 N          58.4696   92.6606    2.9563 N.2     1  UNL1       -0.0345
      7 C          59.8177   92.9858    2.3845 C.2     1  UNL1        0.3649
      8 N          60.8555   92.3092    3.2302 N.2     1  UNL1       -0.0380
      9 C          60.1488   91.5657    4.3246 C.2     1  UNL1        0.2184
     10 C          60.6575   90.7189    5.4535 C.3     1  UNL1        0.1186
     11 C          61.7267   86.7023   10.9283 C.2     1  UNL1        0.4050
     12 O          62.4119   87.3446   12.0979 O.2     1  UNL1       -0.2262
     13 N          61.2179   87.5491    9.7995 N.am    1  UNL1       -0.2425
     14 C          60.5327   86.9068    8.6298 C.3     1  UNL1        0.1181
     15 C          60.0240   87.7536    7.5011 C.3     1  UNL1        0.1122
     16 N          60.2005   89.2426    7.5419 N.pl3   1  UNL1       -0.3070
     17 C          60.8856   89.8849    8.7115 C.3     1  UNL1        0.1122
     18 C          61.3944   89.0381    9.8403 C.3     1  UNL1        0.1181
     19 O          61.5502   85.2133   10.8874 O.3     1  UNL1       -0.4345
     20 C          63.6288   83.7157   10.4555 C.3     1  UNL1        0.0513
     21 C          62.6344   84.3151   11.4051 C.3     1  UNL1        0.2102
     22 C          60.0816   93.8382    1.1788 C.3     1  UNL1        0.2250
     23 C          61.3065   94.7024    1.1248 C.2     1  UNL1        0.0436
     24 C          61.5703   95.5547   -0.0811 C.2     1  UNL1        0.0288
     25 C          60.6094   95.5428   -1.2328 C.2     1  UNL1        0.0896
     26 N          59.3846   94.6786   -1.1788 N.am    1  UNL1       -0.1770
     27 C          59.1207   93.8263    0.0270 C.2     1  UNL1        0.2627
     28 O          57.8959   92.9621    0.0811 O.2     1  UNL1       -0.2719
     29 N          62.2674   94.7143    2.2764 N.pl3   1  UNL1       -0.3329
     30 H          61.9340   94.6089    3.1968 H       1  UNL1        0.1466
     31 C          63.7362   94.8867    2.0260 C.3     1  UNL1        0.1211
     32 C          64.4395   93.9958    1.0454 C.3     1  UNL1        0.1522
     33 O          65.0909   92.7292    1.5161 O.3     1  UNL1       -0.3783
     34 H          64.9655   92.6377    2.4736 H       1  UNL1        0.2109
     35 C          64.4914   94.3713   -0.4059 C.ar    1  UNL1        0.0067
     36 C          65.1371   95.6587   -0.8249 C.ar    1  UNL1       -0.0018
     37 C          65.1890   96.0342   -2.2762 C.ar    1  UNL1        0.0006
     38 C          64.5950   95.1224   -3.3086 C.ar    1  UNL1        0.0114
     39 C          63.9492   93.8350   -2.8896 C.ar    1  UNL1        0.0574
     40 CL         63.3553   92.9232   -3.9219 Cl      1  UNL1       -0.0823
     41 C          63.8974   93.4595   -1.4383 C.ar    1  UNL1        0.0095
@<TRIPOS>BOND
     1    20    21    1
     2    21    19    1
     3    19    11    1
     4    11    12    2
     5    11    13   am
     6    13    14    1
     7    14    15    1
     8    15    16    1
     9    16     1    1
    10     1     2    2
    11     2     3    1
    12     3     4    1
    13     3     5    2
    14     5     6    1
    15     6     7    2
    16     7    22    1
    17    22    23    1
    18    23    29    1
    19    29    31    1
    20    31    32    1
    21    32    33    1
    22    32    35    1
    23    35    36   ar
    24    36    37   ar
    25    37    38   ar
    26    38    39   ar
    27    39    40    1
    28    39    41   ar
    29    23    24    2
    30    24    25    1
    31    25    26    2
    32    26    27    1
    33    27    28    2
    34     7     8    1
    35     8     9    2
    36     9    10    1
    37    16    17    1
    38    17    18    1
    39    18    13    1
    40    10     1    1
    41     9     5    1
    42    27    22    1
    43    41    35   ar
    44    29    30    1
    45    33    34    1
@<TRIPOS>MOLECULE
*****
 41 45 0 0 0
SMALL
GASTEIGER

@<TRIPOS>ATOM
      1 C          59.8079   90.0246    6.3973 C.2     1  UNL1        0.0332
      2 C          58.3766   90.4102    6.1684 C.2     1  UNL1        0.0101
      3 C          58.0182   91.3243    5.0342 C.2     1  UNL1        0.0255
      4 C          56.5868   91.7099    4.8054 C.3     1  UNL1        0.0351
      5 C          59.0913   91.8526    4.1291 C.2     1  UNL1        0.2278
      6 N          59.0415   92.7638    2.9387 N.2     1  UNL1       -0.0345
      7 C          60.4420   92.9413    2.4319 C.2     1  UNL1        0.3649
      8 N          61.3575   92.1398    3.3091 N.2     1  UNL1       -0.0380
      9 C          60.5227   91.4670    4.3581 C.2     1  UNL1        0.2184
     10 C          60.8810   90.5529    5.4922 C.3     1  UNL1        0.1186
     11 C          61.2412   86.3683   10.9335 C.2     1  UNL1        0.4050
     12 O          61.4332   86.9246   12.3133 O.2     1  UNL1       -0.2262
     13 N          60.8829   87.2824    9.7995 N.am    1  UNL1       -0.2425
     14 C          60.6910   86.7261    8.4197 C.3     1  UNL1        0.1181
     15 C          60.3326   87.6402    7.2857 C.3     1  UNL1        0.1122
     16 N          60.1662   89.1105    7.5314 N.pl3   1  UNL1       -0.3070
     17 C          60.3582   89.6668    8.9111 C.3     1  UNL1        0.1122
     18 C          60.7165   88.7527   10.0452 C.3     1  UNL1        0.1181
     19 O          61.4076   84.8980   10.6878 O.3     1  UNL1       -0.4345
     20 C          62.7156   83.0445   11.9542 C.3     1  UNL1        0.0513
     21 C          62.7038   84.2230   11.0263 C.3     1  UNL1        0.2102
     22 C          60.8548   93.7741    1.2545 C.3     1  UNL1        0.2250
     23 C          59.8767   94.0500    0.1513 C.2     1  UNL1        0.0436
     24 C          60.2895   94.8828   -1.0261 C.2     1  UNL1        0.0288
     25 C          61.6803   95.4396   -1.1002 C.2     1  UNL1        0.0896
     26 N          62.6584   95.1637    0.0030 N.am    1  UNL1       -0.1770
     27 C          62.2456   94.3309    1.1804 C.2     1  UNL1        0.2627
     28 O          63.2237   94.0550    2.2836 O.2     1  UNL1       -0.2719
     29 N          58.4858   93.4932    0.2253 N.pl3   1  UNL1       -0.3329
     30 H          58.2023   92.9807    1.0166 H       1  UNL1        0.1466
     31 C          57.5270   93.7173   -0.9062 C.3     1  UNL1        0.1211
     32 C          57.1374   92.5747   -1.7966 C.3     1  UNL1        0.1522
     33 O          56.6524   91.2881   -1.1969 O.3     1  UNL1       -0.3783
     34 H          56.6514   91.3624   -0.2297 H       1  UNL1        0.2109
     35 C          57.2329   92.7186   -3.2866 C.ar    1  UNL1        0.0067
     36 C          58.2462   93.6473   -3.8870 C.ar    1  UNL1       -0.0018
     37 C          58.3416   93.7912   -5.3770 C.ar    1  UNL1        0.0006
     38 C          57.4237   93.0064   -6.2667 C.ar    1  UNL1        0.0114
     39 C          56.4103   92.0777   -5.6662 C.ar    1  UNL1        0.0574
     40 CL         55.4924   91.2929   -6.5559 Cl      1  UNL1       -0.0823
     41 C          56.3149   91.9338   -4.1762 C.ar    1  UNL1        0.0095
@<TRIPOS>BOND
     1    20    21    1
     2    21    19    1
     3    19    11    1
     4    11    12    2
     5    11    13   am
     6    13    14    1
     7    14    15    1
     8    15    16    1
     9    16     1    1
    10     1     2    2
    11     2     3    1
    12     3     4    1
    13     3     5    2
    14     5     6    1
    15     6     7    2
    16     7    22    1
    17    22    23    1
    18    23    29    1
    19    29    31    1
    20    31    32    1
    21    32    33    1
    22    32    35    1
    23    35    36   ar
    24    36    37   ar
    25    37    38   ar
    26    38    39   ar
    27    39    40    1
    28    39    41   ar
    29    23    24    2
    30    24    25    1
    31    25    26    2
    32    26    27    1
    33    27    28    2
    34     7     8    1
    35     8     9    2
    36     9    10    1
    37    16    17    1
    38    17    18    1
    39    18    13    1
    40    10     1    1
    41     9     5    1
    42    27    22    1
    43    41    35   ar
    44    29    30    1
    45    33    34    1
@<TRIPOS>MOLECULE
*****
 41 45 0 0 0
SMALL
GASTEIGER

@<TRIPOS>ATOM
      1 C          60.7385   88.8714    8.7302 C.2     1  UNL1        0.0332
      2 C          61.1960   89.6442    9.9315 C.2     1  UNL1        0.0101
      3 C          61.8279   88.9278   11.0881 C.2     1  UNL1        0.0255
      4 C          62.2855   89.7007   12.2896 C.3     1  UNL1        0.0351
      5 C          62.0020   87.4386   11.0433 C.2     1  UNL1        0.2278
      6 N          62.5860   86.4664   12.0250 N.2     1  UNL1       -0.0345
      7 C          62.4893   85.0928   11.4302 C.2     1  UNL1        0.3649
      8 N          61.8456   85.2160   10.0810 N.2     1  UNL1       -0.0380
      9 C          61.5444   86.6659    9.8418 C.2     1  UNL1        0.2184
     10 C          60.9126   87.3822    8.6853 C.3     1  UNL1        0.1186
     11 C          58.2114   91.7368    4.1037 C.2     1  UNL1        0.4050
     12 O          56.7191   91.8679    4.0273 O.2     1  UNL1       -0.2262
     13 N          58.8432   91.0205    5.2603 N.am    1  UNL1       -0.2425
     14 C          60.3355   90.8894    5.3367 C.3     1  UNL1        0.1181
     15 C          60.9672   90.1730    6.4933 C.3     1  UNL1        0.1122
     16 N          60.1066   89.5878    7.5735 N.pl3   1  UNL1       -0.3070
     17 C          58.6144   89.7189    7.4972 C.3     1  UNL1        0.1122
     18 C          57.9826   90.4352    6.3405 C.3     1  UNL1        0.1181
     19 O          59.0720   92.3220    3.0235 O.3     1  UNL1       -0.4345
     20 C          60.4863   94.3212    2.1558 C.3     1  UNL1        0.0513
     21 C          59.8807   93.5560    3.2949 C.3     1  UNL1        0.2102
     22 C          62.9547   83.8194   12.0721 C.3     1  UNL1        0.2250
     23 C          62.7475   83.6008   13.5415 C.2     1  UNL1        0.0436
     24 C          63.2129   82.3274   14.1833 C.2     1  UNL1        0.0288
     25 C          63.8854   81.2725   13.3556 C.2     1  UNL1        0.0896
     26 N          64.0925   81.4910   11.8862 N.am    1  UNL1       -0.1770
     27 C          63.6271   82.7645   11.2444 C.2     1  UNL1        0.2627
     28 O          63.8342   82.9830    9.7750 O.2     1  UNL1       -0.2719
     29 N          62.0751   84.6557   14.3692 N.pl3   1  UNL1       -0.3329
     30 H          61.1798   84.9806   14.1199 H       1  UNL1        0.1466
     31 C          62.7666   85.2155   15.5769 C.3     1  UNL1        0.1211
     32 C          63.9986   86.0555   15.4135 C.3     1  UNL1        0.1522
     33 O          65.3068   85.4086   15.0669 O.3     1  UNL1       -0.3783
     34 H          65.1820   84.4502   14.9851 H       1  UNL1        0.2109
     35 C          63.9223   87.5422   15.5969 C.ar    1  UNL1        0.0067
     36 C          63.1261   88.1184   16.7300 C.ar    1  UNL1       -0.0018
     37 C          63.0498   89.6051   16.9134 C.ar    1  UNL1        0.0006
     38 C          63.7699   90.5159   15.9636 C.ar    1  UNL1        0.0114
     39 C          64.5661   89.9398   14.8305 C.ar    1  UNL1        0.0574
     40 CL         65.2862   90.8505   13.8808 Cl      1  UNL1       -0.0823
     41 C          64.6424   88.4530   14.6471 C.ar    1  UNL1        0.0095
@<TRIPOS>BOND
     1    20    21    1
     2    21    19    1
     3    19    11    1
     4    11    12    2
     5    11    13   am
     6    13    14    1
     7    14    15    1
     8    15    16    1
     9    16     1    1
    10     1     2    2
    11     2     3    1
    12     3     4    1
    13     3     5    2
    14     5     6    1
    15     6     7    2
    16     7    22    1
    17    22    23    1
    18    23    29    1
    19    29    31    1
    20    31    32    1
    21    32    33    1
    22    32    35    1
    23    35    36   ar
    24    36    37   ar
    25    37    38   ar
    26    38    39   ar
    27    39    40    1
    28    39    41   ar
    29    23    24    2
    30    24    25    1
    31    25    26    2
    32    26    27    1
    33    27    28    2
    34     7     8    1
    35     8     9    2
    36     9    10    1
    37    16    17    1
    38    17    18    1
    39    18    13    1
    40    10     1    1
    41     9     5    1
    42    27    22    1
    43    41    35   ar
    44    29    30    1
    45    33    34    1
@<TRIPOS>MOLECULE
*****
 41 45 0 0 0
SMALL
GASTEIGER

@<TRIPOS>ATOM
      1 C          59.8149   89.8545    6.6104 C.2     1  UNL1        0.0332
      2 C          58.3472   90.0204    6.3498 C.2     1  UNL1        0.0101
      3 C          57.8761   90.9752    5.2931 C.2     1  UNL1        0.0255
      4 C          56.4082   91.1410    5.0325 C.3     1  UNL1        0.0351
      5 C          58.8731   91.7641    4.4970 C.2     1  UNL1        0.2278
      6 N          58.7082   92.7728    3.3992 N.2     1  UNL1       -0.0345
      7 C          60.0743   93.2304    2.9813 C.2     1  UNL1        0.3649
      8 N          61.0833   92.5045    3.8209 N.2     1  UNL1       -0.0380
      9 C          60.3409   91.5983    4.7577 C.2     1  UNL1        0.2184
     10 C          60.8118   90.6435    5.8143 C.3     1  UNL1        0.1186
     11 C          61.6989   86.0352   10.8370 C.2     1  UNL1        0.4050
     12 O          62.2013   86.5580   12.1501 O.2     1  UNL1       -0.2262
     13 N          61.2279   86.9901    9.7804 N.am    1  UNL1       -0.2425
     14 C          60.7254   86.4673    8.4672 C.3     1  UNL1        0.1181
     15 C          60.2545   87.4222    7.4106 C.3     1  UNL1        0.1122
     16 N          60.2859   88.8997    7.6671 N.pl3   1  UNL1       -0.3070
     17 C          60.7883   89.4224    8.9802 C.3     1  UNL1        0.1122
     18 C          61.2593   88.4676   10.0369 C.3     1  UNL1        0.1181
     19 O          61.6674   84.5577   10.5805 O.3     1  UNL1       -0.4345
     20 C          63.9431   83.3525   10.2362 C.3     1  UNL1        0.0513
     21 C          62.7660   83.6817   11.1057 C.3     1  UNL1        0.2102
     22 C          60.3779   94.2372    1.9116 C.3     1  UNL1        0.2250
     23 C          60.9731   93.7911    0.6090 C.2     1  UNL1        0.0436
     24 C          61.2767   94.7979   -0.4607 C.2     1  UNL1        0.0288
     25 C          60.9853   96.2508   -0.2277 C.2     1  UNL1        0.0896
     26 N          60.3902   96.6969    1.0749 N.am    1  UNL1       -0.1770
     27 C          60.0865   95.6900    2.1445 C.2     1  UNL1        0.2627
     28 O          59.4914   96.1361    3.4471 O.2     1  UNL1       -0.2719
     29 N          61.2645   92.3383    0.3760 N.pl3   1  UNL1       -0.3329
     30 H          60.5499   91.7365    0.0653 H       1  UNL1        0.1466
     31 C          62.6447   91.8022    0.6163 C.3     1  UNL1        0.1211
     32 C          63.5696   92.5090    1.5624 C.3     1  UNL1        0.1522
     33 O          63.9263   91.8768    2.8750 O.3     1  UNL1       -0.3783
     34 H          63.4777   91.0205    2.9540 H       1  UNL1        0.2109
     35 C          64.1377   93.8479    1.1957 C.ar    1  UNL1        0.0067
     36 C          64.3770   94.8779    2.2595 C.ar    1  UNL1       -0.0018
     37 C          64.9451   96.2169    1.8929 C.ar    1  UNL1        0.0006
     38 C          65.2739   96.5259    0.4624 C.ar    1  UNL1        0.0114
     39 C          65.0346   95.4959   -0.6015 C.ar    1  UNL1        0.0574
     40 CL         65.3633   95.8049   -2.0320 Cl      1  UNL1       -0.0823
     41 C          64.4665   94.1569   -0.2348 C.ar    1  UNL1        0.0095
@<TRIPOS>BOND
     1    20    21    1
     2    21    19    1
     3    19    11    1
     4    11    12    2
     5    11    13   am
     6    13    14    1
     7    14    15    1
     8    15    16    1
     9    16     1    1
    10     1     2    2
    11     2     3    1
    12     3     4    1
    13     3     5    2
    14     5     6    1
    15     6     7    2
    16     7    22    1
    17    22    23    1
    18    23    29    1
    19    29    31    1
    20    31    32    1
    21    32    33    1
    22    32    35    1
    23    35    36   ar
    24    36    37   ar
    25    37    38   ar
    26    38    39   ar
    27    39    40    1
    28    39    41   ar
    29    23    24    2
    30    24    25    1
    31    25    26    2
    32    26    27    1
    33    27    28    2
    34     7     8    1
    35     8     9    2
    36     9    10    1
    37    16    17    1
    38    17    18    1
    39    18    13    1
    40    10     1    1
    41     9     5    1
    42    27    22    1
    43    41    35   ar
    44    29    30    1
    45    33    34    1
