@<TRIPOS>MOLECULE
*****
 63 69 0 0 0
SMALL
GASTEIGER

@<TRIPOS>ATOM
      1 N          65.4888   89.0639   14.5644 N.3     1  UNL1       -0.1862
      2 C          65.7322   87.7940   15.3247 C.3     1  UNL1        0.1775
      3 C          64.9273   86.5672   15.0129 C.2     1  UNL1        0.2452
      4 O          65.1707   85.2972   15.7732 O.2     1  UNL1       -0.2732
      5 N          63.8792   86.6103   13.9408 N.am    1  UNL1       -0.2541
      6 C          63.0744   85.3835   13.6289 C.3     1  UNL1        0.1577
      7 C          62.0262   85.4266   12.5568 C.2     1  UNL1        0.2445
      8 O          61.2214   84.1998   12.2450 O.2     1  UNL1       -0.2731
      9 N          61.7828   86.6966   11.7965 N.am    1  UNL1       -0.2705
     10 C          62.5877   87.9234   12.1083 C.3     1  UNL1        0.1359
     11 C          63.6359   87.8802   13.1805 C.3     1  UNL1        0.1908
     12 N          64.4407   89.1070   13.4923 N.am    1  UNL1       -0.1863
     13 C          64.1973   90.3769   12.7320 C.2     1  UNL1        0.3191
     14 O          63.1491   90.4201   11.6599 O.2     1  UNL1       -0.2512
     15 N          65.0021   91.6037   13.0438 N.am    1  UNL1       -0.2836
     16 H          65.6901   91.5754   13.7475 H       1  UNL1        0.1513
     17 C          66.2937   90.2907   14.8763 C.3     1  UNL1        0.1188
     18 C          66.5026   92.6038   16.0406 C.2     1  UNL1       -0.0034
     19 C          65.6695   91.4245   15.6344 C.2     1  UNL1       -0.0071
     20 C          63.3177   84.1136   14.3892 C.3     1  UNL1        0.0556
     21 C          63.1320   82.7874   13.7133 C.ar    1  UNL1       -0.0198
     22 C          63.9080   82.4636   12.4712 C.ar    1  UNL1       -0.0011
     23 C          63.7223   81.1374   11.7952 C.ar    1  UNL1        0.0363
     24 C          62.7606   80.1352   12.3614 C.ar    1  UNL1        0.1337
     25 O          62.5749   78.8090   11.6855 O.3     1  UNL1       -0.5055
     26 C          61.9846   80.4590   13.6036 C.ar    1  UNL1        0.0363
     27 C          62.1703   81.7852   14.2796 C.ar    1  UNL1       -0.0011
     28 H          63.0596   78.6067   10.9096 H       1  UNL1        0.2922
     29 C          60.7347   86.7397   10.7244 C.3     1  UNL1        0.1217
     30 C          60.3662   88.0471   10.0879 C.ar    1  UNL1        0.0135
     31 C          60.0176   89.2270   10.9459 C.ar    1  UNL1       -0.0012
     32 C          59.6491   90.5343   10.3095 C.ar    1  UNL1       -0.0002
     33 C          59.6291   90.6617    8.8150 C.ar    1  UNL1        0.0015
     34 C          59.9777   89.4817    7.9570 C.ar    1  UNL1        0.0170
     35 C          60.0443   89.3077    6.4687 C.ar    1  UNL1        0.0201
     36 C          60.4540   87.8929    6.1852 C.ar    1  UNL1        0.0760
     37 N          60.6406   87.1925    7.4984 N.ar    1  UNL1       -0.3242
     38 C          61.0497   85.7614    7.6840 C.3     1  UNL1        0.1305
     39 C          60.3462   88.1744    8.5934 C.ar    1  UNL1        0.0575
     40 C          59.7525   90.3634    5.4436 C.ar    1  UNL1        0.0208
     41 C          60.8691   90.9484    4.6306 C.ar    1  UNL1        0.0045
     42 C          60.5772   92.0040    3.6057 C.ar    1  UNL1        0.0345
     43 C          59.1687   92.4745    3.3937 C.ar    1  UNL1        0.1353
     44 N          58.0521   91.8894    4.2067 N.ar    1  UNL1       -0.2290
     45 C          58.3441   90.8339    5.2316 C.ar    1  UNL1        0.1003
     46 N          58.8769   93.5300    2.3687 N.am    1  UNL1       -0.2537
     47 C          59.1297   93.2551    0.9159 C.2     1  UNL1        0.3055
     48 O          59.6742   91.9245    0.4881 O.2     1  UNL1       -0.2525
     49 N          58.8378   94.3107   -0.1090 N.am    1  UNL1       -0.2887
     50 H          58.5195   94.4033    2.6495 H       1  UNL1        0.1578
     51 H          58.4804   95.1840    0.1718 H       1  UNL1        0.1510
     52 C          59.0906   94.0357   -1.5618 C.3     1  UNL1        0.0908
     53 C          57.9370   93.8933   -2.5099 C.3     1  UNL1        0.0181
     54 C          58.6091   92.7154   -3.1509 C.3     1  UNL1        0.0017
     55 C          57.2648   95.0711   -1.8690 C.3     1  UNL1        0.0017
     56 C          56.7834   93.7509   -3.4580 C.3     1  UNL1        0.0017
     57 C          64.7588   92.8736   12.2835 C.3     1  UNL1        0.1177
     58 C          65.7658   93.3515   11.2797 C.ar    1  UNL1       -0.0025
     59 C          65.7573   94.7831   10.8320 C.ar    1  UNL1       -0.0026
     60 C          66.7643   95.2609    9.8282 C.ar    1  UNL1       -0.0003
     61 C          67.7797   94.3072    9.2720 C.ar    1  UNL1       -0.0000
     62 C          67.7882   92.8756    9.7197 C.ar    1  UNL1       -0.0003
     63 C          66.7812   92.3977   10.7236 C.ar    1  UNL1       -0.0026
@<TRIPOS>BOND
     1    18    19    2
     2    19    17    1
     3    17     1    1
     4     1     2    1
     5     2     3    1
     6     3     4    2
     7     3     5   am
     8     5     6    1
     9     6    20    1
    10    20    21    1
    11    21    22   ar
    12    22    23   ar
    13    23    24   ar
    14    24    25    1
    15    24    26   ar
    16    26    27   ar
    17     6     7    1
    18     7     8    2
    19     7     9   am
    20     9    29    1
    21    29    30    1
    22    30    31   ar
    23    31    32   ar
    24    32    33   ar
    25    33    34   ar
    26    34    35   ar
    27    35    40    1
    28    40    41   ar
    29    41    42   ar
    30    42    43   ar
    31    43    46    1
    32    46    47   am
    33    47    48    2
    34    47    49   am
    35    49    52    1
    36    52    53    1
    37    53    54    1
    38    53    55    1
    39    53    56    1
    40    43    44   ar
    41    44    45   ar
    42    35    36   ar
    43    36    37   ar
    44    37    38    1
    45    37    39   ar
    46     9    10    1
    47    11    10    1
    48    11    12    1
    49    12    13   am
    50    13    14    2
    51    13    15   am
    52    15    57    1
    53    57    58    1
    54    58    59   ar
    55    59    60   ar
    56    60    61   ar
    57    61    62   ar
    58    62    63   ar
    59    12     1    1
    60    63    58   ar
    61    11     5    1
    62    27    21   ar
    63    39    30   ar
    64    39    34   ar
    65    45    40   ar
    66    25    28    1
    67    46    50    1
    68    49    51    1
    69    15    16    1
@<TRIPOS>MOLECULE
*****
 63 69 0 0 0
SMALL
GASTEIGER

@<TRIPOS>ATOM
      1 N          65.5324   89.9143   13.7993 N.3     1  UNL1       -0.1862
      2 C          65.9642   88.7930   14.6972 C.3     1  UNL1        0.1775
      3 C          65.2012   87.5016   14.7043 C.2     1  UNL1        0.2452
      4 O          65.6331   86.3803   15.6023 O.2     1  UNL1       -0.2732
      5 N          64.0065   87.3313   13.8135 N.am    1  UNL1       -0.2541
      6 C          63.2436   86.0399   13.8206 C.3     1  UNL1        0.1577
      7 C          62.0489   85.8697   12.9298 C.2     1  UNL1        0.2445
      8 O          61.2859   84.5782   12.9368 O.2     1  UNL1       -0.2731
      9 N          61.6170   86.9909   12.0318 N.am    1  UNL1       -0.2705
     10 C          62.3800   88.2824   12.0247 C.3     1  UNL1        0.1359
     11 C          63.5747   88.4526   12.9156 C.3     1  UNL1        0.1908
     12 N          64.3377   89.7440   12.9085 N.am    1  UNL1       -0.1863
     13 C          63.9058   90.8653   12.0105 C.2     1  UNL1        0.3191
     14 O          62.7111   90.6951   11.1196 O.2     1  UNL1       -0.2512
     15 N          64.6688   92.1568   12.0034 N.am    1  UNL1       -0.2836
     16 H          65.4529   92.2685   12.5881 H       1  UNL1        0.1513
     17 C          66.2953   91.2057   13.7922 C.3     1  UNL1        0.1188
     18 C          67.6961   92.8391   15.2482 C.2     1  UNL1       -0.0034
     19 C          67.3785   91.4425   14.8024 C.2     1  UNL1       -0.0071
     20 C          63.6753   84.9186   14.7185 C.3     1  UNL1        0.0556
     21 C          63.3919   83.4971   14.3326 C.ar    1  UNL1       -0.0198
     22 C          64.2850   82.7931   13.3545 C.ar    1  UNL1       -0.0011
     23 C          64.0016   81.3716   12.9686 C.ar    1  UNL1        0.0363
     24 C          62.8250   80.6540   13.5608 C.ar    1  UNL1        0.1337
     25 O          62.5416   79.2325   13.1749 O.3     1  UNL1       -0.5055
     26 C          61.9319   81.3580   14.5390 C.ar    1  UNL1        0.0363
     27 C          62.2153   82.7795   14.9249 C.ar    1  UNL1       -0.0011
     28 H          63.0995   78.7928   12.5639 H       1  UNL1        0.2922
     29 C          60.4223   86.8207   11.1409 C.3     1  UNL1        0.1217
     30 C          60.5463   87.0620    9.6656 C.ar    1  UNL1        0.0135
     31 C          61.0506   85.9719    8.7671 C.ar    1  UNL1       -0.0012
     32 C          61.1747   86.2131    7.2919 C.ar    1  UNL1       -0.0002
     33 C          60.7944   87.5445    6.7151 C.ar    1  UNL1        0.0015
     34 C          60.2901   88.6347    7.6136 C.ar    1  UNL1        0.0170
     35 C          59.8427   90.0389    7.3343 C.ar    1  UNL1        0.0201
     36 C          59.4421   90.6655    8.6370 C.ar    1  UNL1        0.0760
     37 N          59.6420   89.6485    9.7213 N.ar    1  UNL1       -0.3242
     38 C          59.3662   89.8511   11.1817 C.3     1  UNL1        0.1305
     39 C          60.1660   88.3934    9.0888 C.ar    1  UNL1        0.0575
     40 C          59.8028   90.7004    5.9886 C.ar    1  UNL1        0.0208
     41 C          61.0569   90.8204    5.1744 C.ar    1  UNL1        0.0045
     42 C          61.0169   91.4819    3.8288 C.ar    1  UNL1        0.0345
     43 C          59.7230   92.0233    3.2973 C.ar    1  UNL1        0.1353
     44 N          58.4689   91.9033    4.1114 N.ar    1  UNL1       -0.2290
     45 C          58.5088   91.2418    5.4571 C.ar    1  UNL1        0.1003
     46 N          59.6831   92.6848    1.9516 N.am    1  UNL1       -0.2537
     47 C          60.9240   93.3094    1.3858 C.2     1  UNL1        0.3055
     48 O          62.2048   93.2725    2.1657 O.2     1  UNL1       -0.2525
     49 N          60.8841   93.9708    0.0401 N.am    1  UNL1       -0.2887
     50 H          58.8425   92.7090    1.4397 H       1  UNL1        0.1578
     51 H          60.0435   93.9951   -0.4718 H       1  UNL1        0.1510
     52 C          62.1250   94.5954   -0.5257 C.3     1  UNL1        0.0908
     53 C          62.8790   93.9046   -1.6230 C.3     1  UNL1        0.0181
     54 C          64.1391   93.9953   -0.8144 C.3     1  UNL1        0.0017
     55 C          61.6189   93.8138   -2.4317 C.3     1  UNL1        0.0017
     56 C          63.6329   93.2137   -2.7204 C.3     1  UNL1        0.0017
     57 C          64.2370   93.2780   11.1054 C.3     1  UNL1        0.1177
     58 C          65.2651   94.1348   10.4280 C.ar    1  UNL1       -0.0025
     59 C          65.0598   95.6175   10.3309 C.ar    1  UNL1       -0.0026
     60 C          66.0879   96.4743    9.6535 C.ar    1  UNL1       -0.0003
     61 C          67.3214   95.8484    9.0732 C.ar    1  UNL1       -0.0000
     62 C          67.5268   94.3656    9.1703 C.ar    1  UNL1       -0.0003
     63 C          66.4987   93.5089    9.8477 C.ar    1  UNL1       -0.0026
@<TRIPOS>BOND
     1    18    19    2
     2    19    17    1
     3    17     1    1
     4     1     2    1
     5     2     3    1
     6     3     4    2
     7     3     5   am
     8     5     6    1
     9     6    20    1
    10    20    21    1
    11    21    22   ar
    12    22    23   ar
    13    23    24   ar
    14    24    25    1
    15    24    26   ar
    16    26    27   ar
    17     6     7    1
    18     7     8    2
    19     7     9   am
    20     9    29    1
    21    29    30    1
    22    30    31   ar
    23    31    32   ar
    24    32    33   ar
    25    33    34   ar
    26    34    35   ar
    27    35    40    1
    28    40    41   ar
    29    41    42   ar
    30    42    43   ar
    31    43    46    1
    32    46    47   am
    33    47    48    2
    34    47    49   am
    35    49    52    1
    36    52    53    1
    37    53    54    1
    38    53    55    1
    39    53    56    1
    40    43    44   ar
    41    44    45   ar
    42    35    36   ar
    43    36    37   ar
    44    37    38    1
    45    37    39   ar
    46     9    10    1
    47    11    10    1
    48    11    12    1
    49    12    13   am
    50    13    14    2
    51    13    15   am
    52    15    57    1
    53    57    58    1
    54    58    59   ar
    55    59    60   ar
    56    60    61   ar
    57    61    62   ar
    58    62    63   ar
    59    12     1    1
    60    63    58   ar
    61    11     5    1
    62    27    21   ar
    63    39    30   ar
    64    39    34   ar
    65    45    40   ar
    66    25    28    1
    67    46    50    1
    68    49    51    1
    69    15    16    1
@<TRIPOS>MOLECULE
*****
 63 69 0 0 0
SMALL
GASTEIGER

@<TRIPOS>ATOM
      1 N          64.5473   83.1218   13.2993 N.3     1  UNL1       -0.1862
      2 C          65.1732   83.9936   14.3472 C.3     1  UNL1        0.1775
      3 C          64.7678   85.4329   14.4655 C.2     1  UNL1        0.2452
      4 O          65.3937   86.3048   15.5135 O.2     1  UNL1       -0.2732
      5 N          63.7364   86.0004   13.5358 N.am    1  UNL1       -0.2541
      6 C          63.3310   87.4398   13.6541 C.3     1  UNL1        0.1577
      7 C          62.2997   88.0073   12.7244 C.2     1  UNL1        0.2445
      8 O          61.8943   89.4466   12.8427 O.2     1  UNL1       -0.2731
      9 N          61.6738   87.1354   11.6765 N.am    1  UNL1       -0.2705
     10 C          62.0792   85.6961   11.5582 C.3     1  UNL1        0.1359
     11 C          63.1106   85.1286   12.4879 C.3     1  UNL1        0.1908
     12 N          63.5160   83.6893   12.3697 N.am    1  UNL1       -0.1863
     13 C          62.8900   82.8174   11.3217 C.2     1  UNL1        0.3191
     14 O          61.8587   83.3849   10.3921 O.2     1  UNL1       -0.2512
     15 N          63.2955   81.3781   11.2035 N.am    1  UNL1       -0.2836
     16 H          63.9724   81.0057   11.8137 H       1  UNL1        0.1513
     17 C          64.9527   81.6825   13.1811 C.3     1  UNL1        0.1188
     18 C          62.7585   80.6516   14.1152 C.2     1  UNL1       -0.0034
     19 C          64.2539   80.6368   13.9985 C.2     1  UNL1       -0.0071
     20 C          63.9569   88.3116   14.7020 C.3     1  UNL1        0.0556
     21 C          64.5619   89.6293   14.3179 C.ar    1  UNL1       -0.0198
     22 C          64.2300   90.2492   12.9929 C.ar    1  UNL1       -0.0011
     23 C          64.8351   91.5670   12.6088 C.ar    1  UNL1        0.0363
     24 C          65.7720   92.2647   13.5496 C.ar    1  UNL1        0.1337
     25 O          66.3771   93.5825   13.1655 O.3     1  UNL1       -0.5055
     26 C          66.1040   91.6448   14.8746 C.ar    1  UNL1        0.0363
     27 C          65.4990   90.3271   15.2587 C.ar    1  UNL1       -0.0011
     28 H          66.1697   93.9697   12.3379 H       1  UNL1        0.2922
     29 C          60.6425   87.7029   10.7468 C.3     1  UNL1        0.1217
     30 C          60.9973   88.8433    9.8392 C.ar    1  UNL1        0.0135
     31 C          62.0391   89.8383   10.2571 C.ar    1  UNL1       -0.0012
     32 C          62.3939   90.9786    9.3496 C.ar    1  UNL1       -0.0002
     33 C          61.7069   91.1240    8.0241 C.ar    1  UNL1        0.0015
     34 C          60.6651   90.1290    7.6062 C.ar    1  UNL1        0.0170
     35 C          59.8254   90.0149    6.3685 C.ar    1  UNL1        0.0201
     36 C          58.9517   88.8041    6.5111 C.ar    1  UNL1        0.0760
     37 N          59.2513   88.1698    7.8369 N.ar    1  UNL1       -0.3242
     38 C          58.6054   86.9337    8.3890 C.3     1  UNL1        0.1305
     39 C          60.3102   88.9887    8.5137 C.ar    1  UNL1        0.0575
     40 C          59.8544   90.9480    5.1943 C.ar    1  UNL1        0.0208
     41 C          61.1517   91.2398    4.5001 C.ar    1  UNL1        0.0045
     42 C          61.1806   92.1728    3.3260 C.ar    1  UNL1        0.0345
     43 C          59.9124   92.8139    2.8460 C.ar    1  UNL1        0.1353
     44 N          58.6151   92.5221    3.5401 N.ar    1  UNL1       -0.2290
     45 C          58.5861   91.5891    4.7143 C.ar    1  UNL1        0.1003
     46 N          59.9414   93.7469    1.6718 N.am    1  UNL1       -0.2537
     47 C          60.1085   93.2016    0.2844 C.2     1  UNL1        0.3055
     48 O          60.2466   91.7233    0.0712 O.2     1  UNL1       -0.2525
     49 N          60.1375   94.1347   -0.8897 N.am    1  UNL1       -0.2887
     50 H          59.8508   94.7172    1.8117 H       1  UNL1        0.1578
     51 H          60.0469   95.1050   -0.7498 H       1  UNL1        0.1510
     52 C          60.3046   93.5893   -2.2770 C.3     1  UNL1        0.0908
     53 C          59.3023   93.9259   -3.3410 C.3     1  UNL1        0.0181
     54 C          60.1021   95.1398   -3.7106 C.3     1  UNL1        0.0017
     55 C          58.5024   92.7120   -2.9714 C.3     1  UNL1        0.0017
     56 C          58.2999   94.2624   -4.4049 C.3     1  UNL1        0.0017
     57 C          62.6696   80.5063   10.1556 C.3     1  UNL1        0.1177
     58 C          63.0855   79.0708   10.0279 C.ar    1  UNL1       -0.0025
     59 C          64.0456   78.6610    8.9508 C.ar    1  UNL1       -0.0026
     60 C          64.4615   77.2255    8.8231 C.ar    1  UNL1       -0.0003
     61 C          63.9173   76.1997    9.7726 C.ar    1  UNL1       -0.0000
     62 C          62.9571   76.6094   10.8498 C.ar    1  UNL1       -0.0003
     63 C          62.5412   78.0449   10.9775 C.ar    1  UNL1       -0.0026
@<TRIPOS>BOND
     1    18    19    2
     2    19    17    1
     3    17     1    1
     4     1     2    1
     5     2     3    1
     6     3     4    2
     7     3     5   am
     8     5     6    1
     9     6    20    1
    10    20    21    1
    11    21    22   ar
    12    22    23   ar
    13    23    24   ar
    14    24    25    1
    15    24    26   ar
    16    26    27   ar
    17     6     7    1
    18     7     8    2
    19     7     9   am
    20     9    29    1
    21    29    30    1
    22    30    31   ar
    23    31    32   ar
    24    32    33   ar
    25    33    34   ar
    26    34    35   ar
    27    35    40    1
    28    40    41   ar
    29    41    42   ar
    30    42    43   ar
    31    43    46    1
    32    46    47   am
    33    47    48    2
    34    47    49   am
    35    49    52    1
    36    52    53    1
    37    53    54    1
    38    53    55    1
    39    53    56    1
    40    43    44   ar
    41    44    45   ar
    42    35    36   ar
    43    36    37   ar
    44    37    38    1
    45    37    39   ar
    46     9    10    1
    47    11    10    1
    48    11    12    1
    49    12    13   am
    50    13    14    2
    51    13    15   am
    52    15    57    1
    53    57    58    1
    54    58    59   ar
    55    59    60   ar
    56    60    61   ar
    57    61    62   ar
    58    62    63   ar
    59    12     1    1
    60    63    58   ar
    61    11     5    1
    62    27    21   ar
    63    39    30   ar
    64    39    34   ar
    65    45    40   ar
    66    25    28    1
    67    46    50    1
    68    49    51    1
    69    15    16    1
@<TRIPOS>MOLECULE
*****
 63 69 0 0 0
SMALL
GASTEIGER

@<TRIPOS>ATOM
      1 N          63.8949   90.0269   12.0872 N.3     1  UNL1       -0.1862
      2 C          63.6322   88.6249   12.5511 C.3     1  UNL1        0.1775
      3 C          62.6274   87.7733   11.8333 C.2     1  UNL1        0.2452
      4 O          62.3647   86.3712   12.2973 O.2     1  UNL1       -0.2732
      5 N          61.8854   88.3236   10.6516 N.am    1  UNL1       -0.2541
      6 C          60.8807   87.4720    9.9338 C.3     1  UNL1        0.1577
      7 C          60.1386   88.0223    8.7521 C.2     1  UNL1        0.2445
      8 O          59.1339   87.1707    8.0344 O.2     1  UNL1       -0.2731
      9 N          60.4013   89.4244    8.2882 N.am    1  UNL1       -0.2705
     10 C          61.4060   90.2761    9.0060 C.3     1  UNL1        0.1359
     11 C          62.1481   89.7257   10.1877 C.3     1  UNL1        0.1908
     12 N          63.1528   90.5773   10.9055 N.am    1  UNL1       -0.1863
     13 C          63.4155   91.9794   10.4415 C.2     1  UNL1        0.3191
     14 O          62.6735   92.5298    9.2598 O.2     1  UNL1       -0.2512
     15 N          64.4202   92.8311   11.1593 N.am    1  UNL1       -0.2836
     16 H          64.9072   92.4698   11.9349 H       1  UNL1        0.1513
     17 C          64.8996   90.8786   12.8050 C.3     1  UNL1        0.1188
     18 C          65.9454   91.7360   15.0233 C.2     1  UNL1       -0.0034
     19 C          64.9814   90.8411   14.3022 C.2     1  UNL1       -0.0071
     20 C          60.6180   86.0699   10.3977 C.3     1  UNL1        0.0556
     21 C          61.7131   85.0461   10.3486 C.ar    1  UNL1       -0.0198
     22 C          61.8440   84.0345   11.4484 C.ar    1  UNL1       -0.0011
     23 C          62.9391   83.0107   11.3993 C.ar    1  UNL1        0.0363
     24 C          63.9034   82.9984   10.2504 C.ar    1  UNL1        0.1337
     25 O          64.9985   81.9745   10.2013 O.3     1  UNL1       -0.5055
     26 C          63.7725   84.0100    9.1505 C.ar    1  UNL1        0.0363
     27 C          62.6774   85.0338    9.1996 C.ar    1  UNL1       -0.0011
     28 H          65.0803   81.3426   10.8883 H       1  UNL1        0.2922
     29 C          59.6593   89.9748    7.1065 C.3     1  UNL1        0.1217
     30 C          60.4170   90.5446    5.9440 C.ar    1  UNL1        0.0135
     31 C          61.9086   90.4000    5.8776 C.ar    1  UNL1       -0.0012
     32 C          62.6663   90.9697    4.7152 C.ar    1  UNL1       -0.0002
     33 C          61.9325   91.6840    3.6192 C.ar    1  UNL1        0.0015
     34 C          60.4409   91.8286    3.6856 C.ar    1  UNL1        0.0170
     35 C          59.4531   92.4762    2.7610 C.ar    1  UNL1        0.0201
     36 C          58.0850   92.3067    3.3520 C.ar    1  UNL1        0.0760
     37 N          58.2271   91.5544    4.6418 N.ar    1  UNL1       -0.3242
     38 C          57.1095   91.1658    5.5636 C.3     1  UNL1        0.1305
     39 C          59.6832   91.2589    4.8480 C.ar    1  UNL1        0.0575
     40 C          59.7768   93.1713    1.4717 C.ar    1  UNL1        0.0208
     41 C          60.4954   94.4879    1.4893 C.ar    1  UNL1        0.0045
     42 C          60.8190   95.1829    0.2000 C.ar    1  UNL1        0.0345
     43 C          60.4240   94.5614   -1.1068 C.ar    1  UNL1        0.1353
     44 N          59.7054   93.2449   -1.1243 N.ar    1  UNL1       -0.2290
     45 C          59.3818   92.5499    0.1649 C.ar    1  UNL1        0.1003
     46 N          60.7476   95.2565   -2.3960 N.am    1  UNL1       -0.2537
     47 C          62.0345   94.9580   -3.1066 C.2     1  UNL1        0.3055
     48 O          62.9977   93.9644   -2.5279 O.2     1  UNL1       -0.2525
     49 N          62.3580   95.6531   -4.3958 N.am    1  UNL1       -0.2887
     50 H          60.1154   95.9086   -2.7758 H       1  UNL1        0.1578
     51 H          61.7258   96.3053   -4.7756 H       1  UNL1        0.1510
     52 C          63.6449   95.3546   -5.1063 C.3     1  UNL1        0.0908
     53 C          63.6888   94.2911   -6.1632 C.3     1  UNL1        0.0181
     54 C          64.8902   93.6834   -5.5019 C.3     1  UNL1        0.0017
     55 C          62.4875   94.8987   -6.8246 C.3     1  UNL1        0.0017
     56 C          63.7327   93.2276   -7.2201 C.3     1  UNL1        0.0017
     57 C          64.6829   94.2331   10.6954 C.3     1  UNL1        0.1177
     58 C          65.8878   94.5310    9.8530 C.ar    1  UNL1       -0.0025
     59 C          66.9337   93.4771    9.6408 C.ar    1  UNL1       -0.0026
     60 C          68.1386   93.7750    8.7985 C.ar    1  UNL1       -0.0003
     61 C          68.2975   95.1269    8.1683 C.ar    1  UNL1       -0.0000
     62 C          67.2515   96.1810    8.3806 C.ar    1  UNL1       -0.0003
     63 C          66.0466   95.8830    9.2229 C.ar    1  UNL1       -0.0026
@<TRIPOS>BOND
     1    18    19    2
     2    19    17    1
     3    17     1    1
     4     1     2    1
     5     2     3    1
     6     3     4    2
     7     3     5   am
     8     5     6    1
     9     6    20    1
    10    20    21    1
    11    21    22   ar
    12    22    23   ar
    13    23    24   ar
    14    24    25    1
    15    24    26   ar
    16    26    27   ar
    17     6     7    1
    18     7     8    2
    19     7     9   am
    20     9    29    1
    21    29    30    1
    22    30    31   ar
    23    31    32   ar
    24    32    33   ar
    25    33    34   ar
    26    34    35   ar
    27    35    40    1
    28    40    41   ar
    29    41    42   ar
    30    42    43   ar
    31    43    46    1
    32    46    47   am
    33    47    48    2
    34    47    49   am
    35    49    52    1
    36    52    53    1
    37    53    54    1
    38    53    55    1
    39    53    56    1
    40    43    44   ar
    41    44    45   ar
    42    35    36   ar
    43    36    37   ar
    44    37    38    1
    45    37    39   ar
    46     9    10    1
    47    11    10    1
    48    11    12    1
    49    12    13   am
    50    13    14    2
    51    13    15   am
    52    15    57    1
    53    57    58    1
    54    58    59   ar
    55    59    60   ar
    56    60    61   ar
    57    61    62   ar
    58    62    63   ar
    59    12     1    1
    60    63    58   ar
    61    11     5    1
    62    27    21   ar
    63    39    30   ar
    64    39    34   ar
    65    45    40   ar
    66    25    28    1
    67    46    50    1
    68    49    51    1
    69    15    16    1
