@<TRIPOS>MOLECULE
*****
 31 35 0 0 0
SMALL
GASTEIGER

@<TRIPOS>ATOM
      1 C          62.1998   85.5423   11.4391 C.ar    1  UNL1        0.2326
      2 N          62.6210   86.9787   11.5355 N.ar    1  UNL1       -0.2080
      3 C          61.7936   87.7703   10.5664 C.ar    1  UNL1        0.1232
      4 C          61.7689   89.2312   10.2272 C.ar    1  UNL1        0.0741
      5 C          60.8118   89.7450    9.1929 C.ar    1  UNL1        0.0062
      6 C          59.8793   88.7978    8.4977 C.ar    1  UNL1        0.0034
      7 C          59.9040   87.3368    8.8369 C.ar    1  UNL1        0.0391
      8 C          60.8612   86.8231    9.8712 C.ar    1  UNL1        0.1649
      9 O          61.1122   85.4461   10.4106 O.2     1  UNL1       -0.4345
     10 C          63.3454   84.6501   13.5936 C.ar    1  UNL1        0.1432
     11 C          63.9123   83.5100   14.3866 C.ar    1  UNL1        0.0371
     12 C          63.9004   82.1220   13.8181 C.ar    1  UNL1        0.0031
     13 C          63.3217   81.8741   12.4567 C.ar    1  UNL1        0.0004
     14 C          62.7548   83.0141   11.6637 C.ar    1  UNL1        0.0077
     15 C          62.7667   84.4021   12.2321 C.ar    1  UNL1        0.0874
     16 C          64.5464   86.5204   14.9389 C.3     1  UNL1        0.2525
     17 O          63.3573   86.0382   14.1621 O.3     1  UNL1       -0.4713
     18 C          62.7014   90.1784   10.9225 C.2     1  UNL1        0.2474
     19 O          63.0749   91.4768   10.2708 O.2     1  UNL1       -0.2701
     20 N          63.2604   89.8272   12.2694 N.am    1  UNL1       -0.3024
     21 H          63.0153   88.9750   12.6971 H       1  UNL1        0.1497
     22 C          64.1929   90.7743   12.9646 C.3     1  UNL1        0.0745
     23 C          64.8527   91.8788   12.1933 C.3     1  UNL1        0.0356
     24 C          65.7851   92.8259   12.8885 C.3     1  UNL1        0.0591
     25 C          66.7176   93.7731   13.5838 C.3     1  UNL1        0.0161
     26 C          66.9903   93.6158   15.0504 C.3     1  UNL1        0.0028
     27 C          66.3306   92.5114   15.8217 C.3     1  UNL1        0.0161
     28 C          65.3982   91.5643   15.1265 C.3     1  UNL1        0.0591
     29 C          64.4656   90.6170   14.4312 C.3     1  UNL1        0.0356
     30 N          65.1254   91.7215   13.6599 N.3     1  UNL1       -0.2740
     31 C          64.6158   91.1394   13.4675 C.3     1  UNL1        0.0896
@<TRIPOS>BOND
     1    16    17    1
     2    17    10    1
     3    10    11   ar
     4    11    12   ar
     5    12    13   ar
     6    13    14   ar
     7    14    15   ar
     8    15     1    1
     9     1     2   ar
    10     2     3   ar
    11     3     4   ar
    12     4    18    1
    13    18    19    2
    14    18    20   am
    15    22    20    1
    16    22    23    1
    17    24    23    1
    18    24    25    1
    19    25    26    1
    20    26    27    1
    21    28    27    1
    22    28    29    1
    23    28    30    1
    24    30    31    1
    25     4     5   ar
    26     5     6   ar
    27     6     7   ar
    28     7     8   ar
    29     8     9   ar
    30    15    10   ar
    31     9     1   ar
    32     8     3   ar
    33    29    22    1
    34    30    24    1
    35    20    21    1
@<TRIPOS>MOLECULE
*****
 31 35 0 0 0
SMALL
GASTEIGER

@<TRIPOS>ATOM
      1 C          63.6747   86.5124   13.9380 C.ar    1  UNL1        0.2326
      2 N          64.0742   87.8598   13.4139 N.ar    1  UNL1       -0.2080
      3 C          63.9404   88.8505   14.5323 C.ar    1  UNL1        0.1232
      4 C          64.1953   90.3271   14.6010 C.ar    1  UNL1        0.0741
      5 C          63.9680   91.0685   15.8850 C.ar    1  UNL1        0.0062
      6 C          63.4857   90.3333   17.1002 C.ar    1  UNL1        0.0034
      7 C          63.2307   88.8567   17.0315 C.ar    1  UNL1        0.0391
      8 C          63.4581   88.1153   15.7475 C.ar    1  UNL1        0.1649
      9 O          63.2938   86.6703   15.3802 O.2     1  UNL1       -0.4345
     10 C          62.6906   85.0559   12.0248 C.ar    1  UNL1        0.1432
     11 C          62.6745   83.7753   11.2438 C.ar    1  UNL1        0.0371
     12 C          63.6267   82.6708   11.5950 C.ar    1  UNL1        0.0031
     13 C          64.5948   82.8467   12.7271 C.ar    1  UNL1        0.0004
     14 C          64.6108   84.1272   13.5081 C.ar    1  UNL1        0.0077
     15 C          63.6587   85.2318   13.1570 C.ar    1  UNL1        0.0874
     16 C          61.1772   86.2541   10.2858 C.3     1  UNL1        0.2525
     17 O          61.7384   86.1605   11.6737 O.3     1  UNL1       -0.4713
     18 C          64.6777   91.0623   13.3857 C.2     1  UNL1        0.2474
     19 O          63.9498   90.9155   12.0824 O.2     1  UNL1       -0.2701
     20 N          65.8878   91.9442   13.4738 N.am    1  UNL1       -0.3024
     21 H          66.3655   92.0405   14.3292 H       1  UNL1        0.1497
     22 C          66.3702   92.6793   12.2586 C.3     1  UNL1        0.0745
     23 C          67.2250   91.9758   11.2464 C.3     1  UNL1        0.0356
     24 C          67.7073   92.7109   10.0312 C.3     1  UNL1        0.0591
     25 C          68.1897   93.4461    8.8160 C.3     1  UNL1        0.0161
     26 C          67.8172   94.8848    8.6128 C.3     1  UNL1        0.0028
     27 C          66.9624   95.5884    9.6248 C.3     1  UNL1        0.0161
     28 C          66.4801   94.8533   10.8400 C.3     1  UNL1        0.0591
     29 C          65.9977   94.1181   12.0554 C.3     1  UNL1        0.0356
     30 N          66.8526   93.4145   11.0432 N.3     1  UNL1       -0.2740
     31 C          66.5127   93.1945   11.7299 C.3     1  UNL1        0.0896
@<TRIPOS>BOND
     1    16    17    1
     2    17    10    1
     3    10    11   ar
     4    11    12   ar
     5    12    13   ar
     6    13    14   ar
     7    14    15   ar
     8    15     1    1
     9     1     2   ar
    10     2     3   ar
    11     3     4   ar
    12     4    18    1
    13    18    19    2
    14    18    20   am
    15    22    20    1
    16    22    23    1
    17    24    23    1
    18    24    25    1
    19    25    26    1
    20    26    27    1
    21    28    27    1
    22    28    29    1
    23    28    30    1
    24    30    31    1
    25     4     5   ar
    26     5     6   ar
    27     6     7   ar
    28     7     8   ar
    29     8     9   ar
    30    15    10   ar
    31     9     1   ar
    32     8     3   ar
    33    29    22    1
    34    30    24    1
    35    20    21    1
@<TRIPOS>MOLECULE
*****
 31 35 0 0 0
SMALL
GASTEIGER

@<TRIPOS>ATOM
      1 C          62.2030   85.8077   11.1625 C.ar    1  UNL1        0.2326
      2 N          62.9032   86.9647   11.8115 N.ar    1  UNL1       -0.2080
      3 C          62.1350   88.2119   11.4881 C.ar    1  UNL1        0.1232
      4 C          62.3536   89.6493   11.8570 C.ar    1  UNL1        0.0741
      5 C          61.3974   90.7006   11.3771 C.ar    1  UNL1        0.0062
      6 C          60.2225   90.3144   10.5283 C.ar    1  UNL1        0.0034
      7 C          60.0039   88.8770   10.1594 C.ar    1  UNL1        0.0391
      8 C          60.9602   87.8257   10.6393 C.ar    1  UNL1        0.1649
      9 O          61.0022   86.3399   10.4380 O.2     1  UNL1       -0.4345
     10 C          63.3985   83.7653   10.0904 C.ar    1  UNL1        0.1432
     11 C          63.8244   82.3285   10.1544 C.ar    1  UNL1        0.0371
     12 C          63.4807   81.4972   11.3547 C.ar    1  UNL1        0.0031
     13 C          62.7111   82.1028   12.4910 C.ar    1  UNL1        0.0004
     14 C          62.2852   83.5396   12.4269 C.ar    1  UNL1        0.0077
     15 C          62.6289   84.3709   11.2266 C.ar    1  UNL1        0.0874
     16 C          62.8145   84.6323    7.7118 C.3     1  UNL1        0.2525
     17 O          63.7422   84.5967    8.8900 O.3     1  UNL1       -0.4713
     18 C          63.5286   90.0354   12.7059 C.2     1  UNL1        0.2474
     19 O          64.0545   89.0816   13.7372 O.2     1  UNL1       -0.2701
     20 N          64.1775   91.3754   12.5234 N.am    1  UNL1       -0.3024
     21 H          63.8324   92.0014   11.8465 H       1  UNL1        0.1497
     22 C          65.3524   91.7615   13.3722 C.3     1  UNL1        0.0745
     23 C          66.7108   91.9051   12.7522 C.3     1  UNL1        0.0356
     24 C          67.8856   92.2913   13.6010 C.3     1  UNL1        0.0591
     25 C          69.0605   92.6774   14.4498 C.3     1  UNL1        0.0161
     26 C          68.8771   92.9200   15.9186 C.3     1  UNL1        0.0028
     27 C          67.5189   92.7764   16.5387 C.3     1  UNL1        0.0161
     28 C          66.3440   92.3903   15.6899 C.3     1  UNL1        0.0591
     29 C          65.1691   92.0041   14.8410 C.3     1  UNL1        0.0356
     30 N          66.5274   92.1477   14.2210 N.3     1  UNL1       -0.2740
     31 C          65.8071   91.9559   13.9384 C.3     1  UNL1        0.0896
@<TRIPOS>BOND
     1    16    17    1
     2    17    10    1
     3    10    11   ar
     4    11    12   ar
     5    12    13   ar
     6    13    14   ar
     7    14    15   ar
     8    15     1    1
     9     1     2   ar
    10     2     3   ar
    11     3     4   ar
    12     4    18    1
    13    18    19    2
    14    18    20   am
    15    22    20    1
    16    22    23    1
    17    24    23    1
    18    24    25    1
    19    25    26    1
    20    26    27    1
    21    28    27    1
    22    28    29    1
    23    28    30    1
    24    30    31    1
    25     4     5   ar
    26     5     6   ar
    27     6     7   ar
    28     7     8   ar
    29     8     9   ar
    30    15    10   ar
    31     9     1   ar
    32     8     3   ar
    33    29    22    1
    34    30    24    1
    35    20    21    1
@<TRIPOS>MOLECULE
*****
 31 35 0 0 0
SMALL
GASTEIGER

@<TRIPOS>ATOM
      1 C          63.4408   85.2095   13.8088 C.ar    1  UNL1        0.2326
      2 N          63.6452   86.6790   14.0293 N.ar    1  UNL1       -0.2080
      3 C          63.3608   86.9752   15.4721 C.ar    1  UNL1        0.1232
      4 C          63.3989   88.2501   16.2614 C.ar    1  UNL1        0.0741
      5 C          63.0568   88.2386   17.7218 C.ar    1  UNL1        0.0062
      6 C          62.6766   86.9521   18.3929 C.ar    1  UNL1        0.0034
      7 C          62.6385   85.6772   17.6035 C.ar    1  UNL1        0.0391
      8 C          62.9806   85.6887   16.1431 C.ar    1  UNL1        0.1649
      9 O          63.0300   84.5975   15.1152 O.2     1  UNL1       -0.4345
     10 C          62.8021   84.8732   11.3129 C.ar    1  UNL1        0.1432
     11 C          62.9776   84.1438   10.0141 C.ar    1  UNL1        0.0371
     12 C          63.9672   83.0212    9.9121 C.ar    1  UNL1        0.0031
     13 C          64.7813   82.6281   11.1090 C.ar    1  UNL1        0.0004
     14 C          64.6059   83.3575   12.4079 C.ar    1  UNL1        0.0077
     15 C          63.6163   84.4800   12.5098 C.ar    1  UNL1        0.0874
     16 C          62.1369   87.3373   10.8274 C.3     1  UNL1        0.2525
     17 O          61.8125   85.9958   11.4150 O.3     1  UNL1       -0.4713
     18 C          63.7791   89.5367   15.5903 C.2     1  UNL1        0.2474
     19 O          63.3013   90.8440   16.1493 O.2     1  UNL1       -0.2701
     20 N          64.6370   89.5158   14.3600 N.am    1  UNL1       -0.3024
     21 H          64.9506   88.6577   13.9931 H       1  UNL1        0.1497
     22 C          65.0172   90.8022   13.6889 C.3     1  UNL1        0.0745
     23 C          65.8726   91.8007   14.4110 C.3     1  UNL1        0.0356
     24 C          66.2528   93.0871   13.7399 C.3     1  UNL1        0.0591
     25 C          66.6330   94.3736   13.0687 C.3     1  UNL1        0.0161
     26 C          66.1579   94.6616   11.6754 C.3     1  UNL1        0.0028
     27 C          65.3025   93.6632   10.9533 C.3     1  UNL1        0.0161
     28 C          64.9223   92.3768   11.6244 C.3     1  UNL1        0.0591
     29 C          64.5421   91.0903   12.2956 C.3     1  UNL1        0.0356
     30 N          65.3975   92.0887   13.0177 N.3     1  UNL1       -0.2740
     31 C          65.1026   91.3726   13.2068 C.3     1  UNL1        0.0896
@<TRIPOS>BOND
     1    16    17    1
     2    17    10    1
     3    10    11   ar
     4    11    12   ar
     5    12    13   ar
     6    13    14   ar
     7    14    15   ar
     8    15     1    1
     9     1     2   ar
    10     2     3   ar
    11     3     4   ar
    12     4    18    1
    13    18    19    2
    14    18    20   am
    15    22    20    1
    16    22    23    1
    17    24    23    1
    18    24    25    1
    19    25    26    1
    20    26    27    1
    21    28    27    1
    22    28    29    1
    23    28    30    1
    24    30    31    1
    25     4     5   ar
    26     5     6   ar
    27     6     7   ar
    28     7     8   ar
    29     8     9   ar
    30    15    10   ar
    31     9     1   ar
    32     8     3   ar
    33    29    22    1
    34    30    24    1
    35    20    21    1
@<TRIPOS>MOLECULE
*****
 31 35 0 0 0
SMALL
GASTEIGER

@<TRIPOS>ATOM
      1 C          63.3737   84.7215   13.9344 C.ar    1  UNL1        0.2326
      2 N          63.5144   86.2111   13.8278 N.ar    1  UNL1       -0.2080
      3 C          63.3407   86.7924   15.1997 C.ar    1  UNL1        0.1232
      4 C          63.3764   88.2050   15.7030 C.ar    1  UNL1        0.0741
      5 C          63.1641   88.4873   17.1608 C.ar    1  UNL1        0.0062
      6 C          62.9161   87.3571   18.1152 C.ar    1  UNL1        0.0034
      7 C          62.8805   85.9445   17.6119 C.ar    1  UNL1        0.0391
      8 C          63.0928   85.6622   16.1541 C.ar    1  UNL1        0.1649
      9 O          63.1132   84.3823   15.3721 O.2     1  UNL1       -0.4345
     10 C          62.8627   82.3800   12.9312 C.ar    1  UNL1        0.1432
     11 C          62.9647   81.4015   11.7990 C.ar    1  UNL1        0.0371
     12 C          63.6797   81.7858   10.5376 C.ar    1  UNL1        0.0031
     13 C          64.2927   83.1488   10.4085 C.ar    1  UNL1        0.0004
     14 C          64.1907   84.1273   11.5407 C.ar    1  UNL1        0.0077
     15 C          63.4757   83.7430   12.8021 C.ar    1  UNL1        0.0874
     16 C          61.0200   81.0078   14.1443 C.3     1  UNL1        0.2525
     17 O          62.1477   81.9957   14.1926 O.3     1  UNL1       -0.4713
     18 C          63.6243   89.3353   14.7485 C.2     1  UNL1        0.2474
     19 O          62.5317   89.7937   13.8288 O.2     1  UNL1       -0.2701
     20 N          64.9650   90.0072   14.7137 N.am    1  UNL1       -0.3024
     21 H          65.6822   89.7063   15.3174 H       1  UNL1        0.1497
     22 C          65.2130   91.1374   13.7593 C.3     1  UNL1        0.0745
     23 C          64.7164   91.0488   12.3466 C.3     1  UNL1        0.0356
     24 C          64.9644   92.1790   11.3922 C.3     1  UNL1        0.0591
     25 C          65.2124   93.3093   10.4377 C.3     1  UNL1        0.0161
     26 C          65.9570   94.5282   10.8959 C.3     1  UNL1        0.0028
     27 C          66.4536   94.6168   12.3085 C.3     1  UNL1        0.0161
     28 C          66.2056   93.4866   13.2629 C.3     1  UNL1        0.0591
     29 C          65.9576   92.3563   14.2175 C.3     1  UNL1        0.0356
     30 N          65.4610   92.2677   12.8048 N.3     1  UNL1       -0.2740
     31 C          65.4253   91.7819   13.4358 C.3     1  UNL1        0.0896
@<TRIPOS>BOND
     1    16    17    1
     2    17    10    1
     3    10    11   ar
     4    11    12   ar
     5    12    13   ar
     6    13    14   ar
     7    14    15   ar
     8    15     1    1
     9     1     2   ar
    10     2     3   ar
    11     3     4   ar
    12     4    18    1
    13    18    19    2
    14    18    20   am
    15    22    20    1
    16    22    23    1
    17    24    23    1
    18    24    25    1
    19    25    26    1
    20    26    27    1
    21    28    27    1
    22    28    29    1
    23    28    30    1
    24    30    31    1
    25     4     5   ar
    26     5     6   ar
    27     6     7   ar
    28     7     8   ar
    29     8     9   ar
    30    15    10   ar
    31     9     1   ar
    32     8     3   ar
    33    29    22    1
    34    30    24    1
    35    20    21    1
@<TRIPOS>MOLECULE
*****
 31 35 0 0 0
SMALL
GASTEIGER

@<TRIPOS>ATOM
      1 C          64.8774   91.1383   13.2017 C.ar    1  UNL1        0.2326
      2 N          64.4242   89.7115   13.1079 N.ar    1  UNL1       -0.2080
      3 C          63.4446   89.6097   11.9765 C.ar    1  UNL1        0.1232
      4 C          62.6715   88.4513   11.4194 C.ar    1  UNL1        0.0741
      5 C          61.7462   88.6567   10.2569 C.ar    1  UNL1        0.0062
      6 C          61.5940   90.0206    9.6514 C.ar    1  UNL1        0.0034
      7 C          62.3671   91.1790   10.2085 C.ar    1  UNL1        0.0391
      8 C          63.2924   90.9736   11.3710 C.ar    1  UNL1        0.1649
      9 O          64.1779   91.9183   12.1282 O.2     1  UNL1       -0.4345
     10 C          65.4042   92.0423   15.5798 C.ar    1  UNL1        0.1432
     11 C          66.3847   92.5925   16.5726 C.ar    1  UNL1        0.0371
     12 C          67.8191   92.7889   16.1802 C.ar    1  UNL1        0.0031
     13 C          68.2729   92.4351   14.7950 C.ar    1  UNL1        0.0004
     14 C          67.2924   91.8849   13.8021 C.ar    1  UNL1        0.0077
     15 C          65.8581   91.6885   14.1945 C.ar    1  UNL1        0.0874
     16 C          63.5059   90.5110   16.4750 C.3     1  UNL1        0.2525
     17 O          63.9698   91.8458   15.9721 O.3     1  UNL1       -0.4713
     18 C          62.8237   87.0874   12.0249 C.2     1  UNL1        0.2474
     19 O          63.4868   86.9297   13.3611 O.2     1  UNL1       -0.2701
     20 N          62.3128   85.8811   11.2942 N.am    1  UNL1       -0.3024
     21 H          61.8775   85.9846   10.4172 H       1  UNL1        0.1497
     22 C          62.4650   84.5172   11.8997 C.3     1  UNL1        0.0745
     23 C          62.2312   84.3181   13.3680 C.3     1  UNL1        0.0356
     24 C          62.3834   82.9542   13.9734 C.3     1  UNL1        0.0591
     25 C          62.5356   81.5903   14.5789 C.3     1  UNL1        0.0161
     26 C          62.9216   80.4255   13.7161 C.3     1  UNL1        0.0028
     27 C          63.1553   80.6246   12.2479 C.3     1  UNL1        0.0161
     28 C          63.0031   81.9885   11.6425 C.3     1  UNL1        0.0591
     29 C          62.8509   83.3525   11.0369 C.3     1  UNL1        0.0356
     30 N          62.6172   83.1533   12.5052 N.3     1  UNL1       -0.2740
     31 C          62.5847   83.7849   12.0199 C.3     1  UNL1        0.0896
@<TRIPOS>BOND
     1    16    17    1
     2    17    10    1
     3    10    11   ar
     4    11    12   ar
     5    12    13   ar
     6    13    14   ar
     7    14    15   ar
     8    15     1    1
     9     1     2   ar
    10     2     3   ar
    11     3     4   ar
    12     4    18    1
    13    18    19    2
    14    18    20   am
    15    22    20    1
    16    22    23    1
    17    24    23    1
    18    24    25    1
    19    25    26    1
    20    26    27    1
    21    28    27    1
    22    28    29    1
    23    28    30    1
    24    30    31    1
    25     4     5   ar
    26     5     6   ar
    27     6     7   ar
    28     7     8   ar
    29     8     9   ar
    30    15    10   ar
    31     9     1   ar
    32     8     3   ar
    33    29    22    1
    34    30    24    1
    35    20    21    1
@<TRIPOS>MOLECULE
*****
 31 35 0 0 0
SMALL
GASTEIGER

@<TRIPOS>ATOM
      1 C          63.3245   90.5203   12.1686 C.ar    1  UNL1        0.2326
      2 N          63.1824   89.0455   11.9347 N.ar    1  UNL1       -0.2080
      3 C          62.1886   88.8452   10.8291 C.ar    1  UNL1        0.1232
      4 C          61.6525   87.6071   10.1736 C.ar    1  UNL1        0.0741
      5 C          60.6444   87.7199    9.0687 C.ar    1  UNL1        0.0062
      6 C          60.1723   89.0709    8.6193 C.ar    1  UNL1        0.0034
      7 C          60.7084   90.3090    9.2748 C.ar    1  UNL1        0.0391
      8 C          61.7165   90.1961   10.3797 C.ar    1  UNL1        0.1649
      9 O          62.4185   91.2314   11.2075 O.2     1  UNL1       -0.4345
     10 C          64.0052   90.9050   14.6462 C.ar    1  UNL1        0.1432
     11 C          64.8967   91.5546   15.6627 C.ar    1  UNL1        0.0371
     12 C          65.9991   92.4694   15.2178 C.ar    1  UNL1        0.0031
     13 C          66.2100   92.7344   13.7566 C.ar    1  UNL1        0.0004
     14 C          65.3185   92.0848   12.7402 C.ar    1  UNL1        0.0077
     15 C          64.2161   91.1700   13.1850 C.ar    1  UNL1        0.0874
     16 C          63.0721   89.1572   16.3270 C.3     1  UNL1        0.2525
     17 O          62.9027   89.9902   15.0911 O.3     1  UNL1       -0.4713
     18 C          62.1247   86.2560   10.6230 C.2     1  UNL1        0.2474
     19 O          62.7270   85.3043    9.6324 O.2     1  UNL1       -0.2701
     20 N          61.9945   85.8569   12.0631 N.am    1  UNL1       -0.3024
     21 H          61.5992   86.4816   12.7132 H       1  UNL1        0.1497
     22 C          62.4666   84.5060   12.5125 C.3     1  UNL1        0.0745
     23 C          62.0560   83.2778   11.7555 C.3     1  UNL1        0.0356
     24 C          62.5281   81.9269   12.2049 C.3     1  UNL1        0.0591
     25 C          63.0002   80.5760   12.6544 C.3     1  UNL1        0.0161
     26 C          63.8829   80.4531   13.8609 C.3     1  UNL1        0.0028
     27 C          64.2936   81.6812   14.6180 C.3     1  UNL1        0.0161
     28 C          63.8214   83.0321   14.1685 C.3     1  UNL1        0.0591
     29 C          63.3493   84.3831   13.7191 C.3     1  UNL1        0.0356
     30 N          62.9387   83.1550   12.9620 N.3     1  UNL1       -0.2740
     31 C          62.7913   83.9336   12.8760 C.3     1  UNL1        0.0896
@<TRIPOS>BOND
     1    16    17    1
     2    17    10    1
     3    10    11   ar
     4    11    12   ar
     5    12    13   ar
     6    13    14   ar
     7    14    15   ar
     8    15     1    1
     9     1     2   ar
    10     2     3   ar
    11     3     4   ar
    12     4    18    1
    13    18    19    2
    14    18    20   am
    15    22    20    1
    16    22    23    1
    17    24    23    1
    18    24    25    1
    19    25    26    1
    20    26    27    1
    21    28    27    1
    22    28    29    1
    23    28    30    1
    24    30    31    1
    25     4     5   ar
    26     5     6   ar
    27     6     7   ar
    28     7     8   ar
    29     8     9   ar
    30    15    10   ar
    31     9     1   ar
    32     8     3   ar
    33    29    22    1
    34    30    24    1
    35    20    21    1
