@<TRIPOS>MOLECULE
*****
 22 24 0 0 0
SMALL
GASTEIGER

@<TRIPOS>ATOM
      1 C          65.3000   91.4252   14.3964 C.ar    1  UNL1        0.0295
      2 C          65.9259   92.5933   15.0990 C.ar    1  UNL1        0.0070
      3 C          66.5230   93.4942   14.0588 C.ar    1  UNL1        0.0070
      4 C          66.2662   92.8827   12.7133 C.ar    1  UNL1        0.0296
      5 S          65.5103   91.6040   12.9220 S.2     1  UNL1       -0.0869
      6 C          64.2621   86.3417   14.6809 C.3     1  UNL1        0.0342
      7 C          64.0697   87.7376   15.1952 C.ar    1  UNL1        0.0119
      8 C          64.7810   88.8834   14.5387 C.ar    1  UNL1       -0.0008
      9 C          64.5886   90.2793   15.0529 C.ar    1  UNL1        0.0059
     10 C          63.6848   90.5293   16.2237 C.ar    1  UNL1        0.0036
     11 C          62.9735   89.3835   16.8802 C.ar    1  UNL1        0.0363
     12 C          63.1660   87.9876   16.3659 C.ar    1  UNL1        0.1296
     13 O          62.4546   86.8417   17.0224 O.3     1  UNL1       -0.5058
     14 H          61.8900   86.9979   17.7538 H       1  UNL1        0.2922
     15 C          66.6906   93.4503   11.3914 C.ar    1  UNL1        0.0090
     16 C          66.3212   94.8574   11.0259 C.ar    1  UNL1        0.0007
     17 C          66.7457   95.4250    9.7040 C.ar    1  UNL1        0.0031
     18 C          67.5396   94.5855    8.7474 C.ar    1  UNL1        0.0366
     19 C          67.9090   93.1784    9.1129 C.ar    1  UNL1        0.1337
     20 O          68.7029   92.3389    8.1563 O.3     1  UNL1       -0.5055
     21 C          67.4846   92.6108   10.4348 C.ar    1  UNL1        0.0371
     22 H          68.9681   92.6935    7.3305 H       1  UNL1        0.2922
@<TRIPOS>BOND
     1     6     7    1
     2     7     8   ar
     3     8     9   ar
     4     9     1    1
     5     1     2   ar
     6     2     3   ar
     7     3     4   ar
     8     4    15    1
     9    15    16   ar
    10    16    17   ar
    11    17    18   ar
    12    18    19   ar
    13    19    20    1
    14    19    21   ar
    15     4     5   ar
    16     9    10   ar
    17    10    11   ar
    18    11    12   ar
    19    12    13    1
    20    12     7   ar
    21     5     1   ar
    22    21    15   ar
    23    20    22    1
    24    13    14    1
@<TRIPOS>MOLECULE
*****
 22 24 0 0 0
SMALL
GASTEIGER

@<TRIPOS>ATOM
      1 C          63.8957   86.3384   15.0532 C.ar    1  UNL1        0.0295
      2 C          64.1191   85.2186   16.0258 C.ar    1  UNL1        0.0070
      3 C          64.0749   83.9272   15.2640 C.ar    1  UNL1        0.0070
      4 C          63.8242   84.2489   13.8204 C.ar    1  UNL1        0.0296
      5 S          63.7134   85.7391   13.6902 S.2     1  UNL1       -0.0869
      6 C          65.0549   91.2568   13.8423 C.3     1  UNL1        0.0342
      7 C          64.4403   90.2600   14.7797 C.ar    1  UNL1        0.0119
      8 C          64.4752   88.7977   14.4478 C.ar    1  UNL1       -0.0008
      9 C          63.8606   87.8009   15.3851 C.ar    1  UNL1        0.0059
     10 C          63.2110   88.2664   16.6545 C.ar    1  UNL1        0.0036
     11 C          63.1760   89.7288   16.9864 C.ar    1  UNL1        0.0363
     12 C          63.7906   90.7256   16.0490 C.ar    1  UNL1        0.1296
     13 O          63.7556   92.1880   16.3810 O.3     1  UNL1       -0.5058
     14 H          63.3498   92.4789   17.1739 H       1  UNL1        0.2922
     15 C          63.7051   83.2550   12.7034 C.ar    1  UNL1        0.0090
     16 C          64.1132   83.6382   11.3118 C.ar    1  UNL1        0.0007
     17 C          63.9941   82.6443   10.1948 C.ar    1  UNL1        0.0031
     18 C          63.4670   81.2670   10.4693 C.ar    1  UNL1        0.0366
     19 C          63.0590   80.8837   11.8609 C.ar    1  UNL1        0.1337
     20 O          62.5318   79.5065   12.1355 O.3     1  UNL1       -0.5055
     21 C          63.1780   81.8777   12.9780 C.ar    1  UNL1        0.0371
     22 H          62.4575   78.8856   11.4377 H       1  UNL1        0.2922
@<TRIPOS>BOND
     1     6     7    1
     2     7     8   ar
     3     8     9   ar
     4     9     1    1
     5     1     2   ar
     6     2     3   ar
     7     3     4   ar
     8     4    15    1
     9    15    16   ar
    10    16    17   ar
    11    17    18   ar
    12    18    19   ar
    13    19    20    1
    14    19    21   ar
    15     4     5   ar
    16     9    10   ar
    17    10    11   ar
    18    11    12   ar
    19    12    13    1
    20    12     7   ar
    21     5     1   ar
    22    21    15   ar
    23    20    22    1
    24    13    14    1
@<TRIPOS>MOLECULE
*****
 22 24 0 0 0
SMALL
GASTEIGER

@<TRIPOS>ATOM
      1 C          63.0873   90.0125   12.9462 C.ar    1  UNL1        0.0295
      2 C          62.7751   89.7702   14.3932 C.ar    1  UNL1        0.0070
      3 C          63.8907   90.3498   15.2114 C.ar    1  UNL1        0.0070
      4 C          64.8924   90.9503   14.2701 C.ar    1  UNL1        0.0296
      5 S          64.3958   90.7418   12.8701 S.2     1  UNL1       -0.0869
      6 C          61.9719   86.6159    9.1754 C.3     1  UNL1        0.0342
      7 C          61.6820   87.8999    9.8946 C.ar    1  UNL1        0.0119
      8 C          62.5295   88.3142   11.0607 C.ar    1  UNL1       -0.0008
      9 C          62.2397   89.5982   11.7799 C.ar    1  UNL1        0.0059
     10 C          61.1023   90.4680   11.3329 C.ar    1  UNL1        0.0036
     11 C          60.2548   90.0537   10.1668 C.ar    1  UNL1        0.0363
     12 C          60.5446   88.7696    9.4476 C.ar    1  UNL1        0.1296
     13 O          59.6970   88.3554    8.2813 O.3     1  UNL1       -0.5058
     14 H          58.9865   88.8987    8.0021 H       1  UNL1        0.2922
     15 C          66.1669   91.6384   14.6602 C.ar    1  UNL1        0.0090
     16 C          66.2061   92.5080   15.8818 C.ar    1  UNL1        0.0007
     17 C          67.4805   93.1961   16.2719 C.ar    1  UNL1        0.0031
     18 C          68.7158   93.0145   15.4405 C.ar    1  UNL1        0.0366
     19 C          68.6766   92.1449   14.2190 C.ar    1  UNL1        0.1337
     20 O          69.9119   91.9633   13.3876 O.3     1  UNL1       -0.5055
     21 C          67.4022   91.4568   13.8289 C.ar    1  UNL1        0.0371
     22 H          70.7080   92.3931   13.6314 H       1  UNL1        0.2922
@<TRIPOS>BOND
     1     6     7    1
     2     7     8   ar
     3     8     9   ar
     4     9     1    1
     5     1     2   ar
     6     2     3   ar
     7     3     4   ar
     8     4    15    1
     9    15    16   ar
    10    16    17   ar
    11    17    18   ar
    12    18    19   ar
    13    19    20    1
    14    19    21   ar
    15     4     5   ar
    16     9    10   ar
    17    10    11   ar
    18    11    12   ar
    19    12    13    1
    20    12     7   ar
    21     5     1   ar
    22    21    15   ar
    23    20    22    1
    24    13    14    1
@<TRIPOS>MOLECULE
*****
 22 24 0 0 0
SMALL
GASTEIGER

@<TRIPOS>ATOM
      1 C          63.5869   90.8646   11.9207 C.ar    1  UNL1        0.0295
      2 C          63.5776   91.6246   10.6276 C.ar    1  UNL1        0.0070
      3 C          62.8295   90.8085    9.6155 C.ar    1  UNL1        0.0070
      4 C          62.3764   89.5440   10.2832 C.ar    1  UNL1        0.0296
      5 S          62.8445   89.5787   11.7079 S.2     1  UNL1       -0.0869
      6 C          67.1986   93.6441   14.4166 C.3     1  UNL1        0.0342
      7 C          66.0321   92.7017   14.4497 C.ar    1  UNL1        0.0119
      8 C          65.3927   92.2544   13.1687 C.ar    1  UNL1       -0.0008
      9 C          64.2263   91.3119   13.2018 C.ar    1  UNL1        0.0059
     10 C          63.6992   90.8167   14.5159 C.ar    1  UNL1        0.0036
     11 C          64.3386   91.2641   15.7969 C.ar    1  UNL1        0.0363
     12 C          65.5050   92.2065   15.7638 C.ar    1  UNL1        0.1296
     13 O          66.1444   92.6538   17.0449 O.3     1  UNL1       -0.5058
     14 H          65.8152   92.3445   17.8658 H       1  UNL1        0.2922
     15 C          61.5928   88.4388    9.6393 C.ar    1  UNL1        0.0090
     16 C          62.0212   87.0126    9.8188 C.ar    1  UNL1        0.0007
     17 C          61.2376   85.9075    9.1748 C.ar    1  UNL1        0.0031
     18 C          60.0256   86.2286    8.3514 C.ar    1  UNL1        0.0366
     19 C          59.5972   87.6549    8.1719 C.ar    1  UNL1        0.1337
     20 O          58.3853   87.9760    7.3485 O.3     1  UNL1       -0.5055
     21 C          60.3808   88.7600    8.8158 C.ar    1  UNL1        0.0371
     22 H          57.8958   87.2857    6.9462 H       1  UNL1        0.2922
@<TRIPOS>BOND
     1     6     7    1
     2     7     8   ar
     3     8     9   ar
     4     9     1    1
     5     1     2   ar
     6     2     3   ar
     7     3     4   ar
     8     4    15    1
     9    15    16   ar
    10    16    17   ar
    11    17    18   ar
    12    18    19   ar
    13    19    20    1
    14    19    21   ar
    15     4     5   ar
    16     9    10   ar
    17    10    11   ar
    18    11    12   ar
    19    12    13    1
    20    12     7   ar
    21     5     1   ar
    22    21    15   ar
    23    20    22    1
    24    13    14    1
@<TRIPOS>MOLECULE
*****
 22 24 0 0 0
SMALL
GASTEIGER

@<TRIPOS>ATOM
      1 C          62.4088   89.2220   10.8834 C.ar    1  UNL1        0.0295
      2 C          62.8392   88.7620   12.2446 C.ar    1  UNL1        0.0070
      3 C          63.7878   89.7825   12.8003 C.ar    1  UNL1        0.0070
      4 C          63.9436   90.8733   11.7824 C.ar    1  UNL1        0.0296
      5 S          63.0913   90.5269   10.5977 S.2     1  UNL1       -0.0869
      6 C          59.0019   89.3118    6.9610 C.3     1  UNL1        0.0342
      7 C          59.7585   88.5483    8.0071 C.ar    1  UNL1        0.0119
      8 C          60.7053   89.2669    8.9221 C.ar    1  UNL1       -0.0008
      9 C          61.4620   88.5034    9.9683 C.ar    1  UNL1        0.0059
     10 C          61.2719   87.0213   10.0995 C.ar    1  UNL1        0.0036
     11 C          60.3251   86.3027    9.1845 C.ar    1  UNL1        0.0363
     12 C          59.5684   87.0663    8.1383 C.ar    1  UNL1        0.1296
     13 O          58.6216   86.3476    7.2233 O.3     1  UNL1       -0.5058
     14 H          58.5029   85.4218    7.3053 H       1  UNL1        0.2922
     15 C          64.8011   92.0958   11.9243 C.ar    1  UNL1        0.0090
     16 C          65.0356   92.9888   10.7421 C.ar    1  UNL1        0.0007
     17 C          65.8931   94.2113   10.8841 C.ar    1  UNL1        0.0031
     18 C          66.5161   94.5408   12.2082 C.ar    1  UNL1        0.0366
     19 C          66.2817   93.6477   13.3904 C.ar    1  UNL1        0.1337
     20 O          66.9048   93.9772   14.7145 O.3     1  UNL1       -0.5055
     21 C          65.4242   92.4253   13.2484 C.ar    1  UNL1        0.0371
     22 H          67.4404   94.7409   14.8031 H       1  UNL1        0.2922
@<TRIPOS>BOND
     1     6     7    1
     2     7     8   ar
     3     8     9   ar
     4     9     1    1
     5     1     2   ar
     6     2     3   ar
     7     3     4   ar
     8     4    15    1
     9    15    16   ar
    10    16    17   ar
    11    17    18   ar
    12    18    19   ar
    13    19    20    1
    14    19    21   ar
    15     4     5   ar
    16     9    10   ar
    17    10    11   ar
    18    11    12   ar
    19    12    13    1
    20    12     7   ar
    21     5     1   ar
    22    21    15   ar
    23    20    22    1
    24    13    14    1
@<TRIPOS>MOLECULE
*****
 22 24 0 0 0
SMALL
GASTEIGER

@<TRIPOS>ATOM
      1 C          63.5830   89.6344   12.3286 C.ar    1  UNL1        0.0295
      2 C          63.4691   88.2184   12.8100 C.ar    1  UNL1        0.0070
      3 C          62.5402   87.4880   11.8861 C.ar    1  UNL1        0.0070
      4 C          62.0799   88.4527   10.8336 C.ar    1  UNL1        0.0296
      5 S          62.7244   89.7792   11.1071 S.2     1  UNL1       -0.0869
      6 C          66.1934   94.1098   11.9329 C.3     1  UNL1        0.0342
      7 C          65.7154   92.9536   12.7603 C.ar    1  UNL1        0.0119
      8 C          64.8882   91.8721   12.1308 C.ar    1  UNL1       -0.0008
      9 C          64.4102   90.7159   12.9582 C.ar    1  UNL1        0.0059
     10 C          64.7592   90.6411   14.4150 C.ar    1  UNL1        0.0036
     11 C          65.5864   91.7225   15.0445 C.ar    1  UNL1        0.0363
     12 C          66.0645   92.8787   14.2171 C.ar    1  UNL1        0.1296
     13 O          66.8916   93.9602   14.8467 O.3     1  UNL1       -0.5058
     14 H          67.1097   93.9135   15.7568 H       1  UNL1        0.2922
     15 C          61.1403   88.1448    9.7057 C.ar    1  UNL1        0.0090
     16 C          60.7079   86.7306    9.4545 C.ar    1  UNL1        0.0007
     17 C          59.7682   86.4228    8.3266 C.ar    1  UNL1        0.0031
     18 C          59.2609   87.5292    7.4499 C.ar    1  UNL1        0.0366
     19 C          59.6932   88.9434    7.7010 C.ar    1  UNL1        0.1337
     20 O          59.1859   90.0497    6.8243 O.3     1  UNL1       -0.5055
     21 C          60.6329   89.2512    8.8289 C.ar    1  UNL1        0.0371
     22 H          58.5989   89.8574    6.1197 H       1  UNL1        0.2922
@<TRIPOS>BOND
     1     6     7    1
     2     7     8   ar
     3     8     9   ar
     4     9     1    1
     5     1     2   ar
     6     2     3   ar
     7     3     4   ar
     8     4    15    1
     9    15    16   ar
    10    16    17   ar
    11    17    18   ar
    12    18    19   ar
    13    19    20    1
    14    19    21   ar
    15     4     5   ar
    16     9    10   ar
    17    10    11   ar
    18    11    12   ar
    19    12    13    1
    20    12     7   ar
    21     5     1   ar
    22    21    15   ar
    23    20    22    1
    24    13    14    1
@<TRIPOS>MOLECULE
*****
 22 24 0 0 0
SMALL
GASTEIGER

@<TRIPOS>ATOM
      1 C          63.9092   87.0030   14.3195 C.ar    1  UNL1        0.0295
      2 C          64.1326   86.4938   15.7126 C.ar    1  UNL1        0.0070
      3 C          63.8610   85.0186   15.7161 C.ar    1  UNL1        0.0070
      4 C          63.4697   84.6161   14.3251 C.ar    1  UNL1        0.0296
      5 S          63.4995   85.8425   13.4620 S.2     1  UNL1       -0.0869
      6 C          62.9638   90.7448   10.8402 C.3     1  UNL1        0.0342
      7 C          63.5949   90.2942   12.1242 C.ar    1  UNL1        0.0119
      8 C          63.4365   88.8739   12.5799 C.ar    1  UNL1       -0.0008
      9 C          64.0677   88.4234   13.8639 C.ar    1  UNL1        0.0059
     10 C          64.8572   89.3931   14.6922 C.ar    1  UNL1        0.0036
     11 C          65.0156   90.8134   14.2366 C.ar    1  UNL1        0.0363
     12 C          64.3845   91.2639   12.9526 C.ar    1  UNL1        0.1296
     13 O          64.5430   92.6843   12.4969 O.3     1  UNL1       -0.5058
     14 H          65.0362   93.2901   13.0144 H       1  UNL1        0.2922
     15 C          63.1115   83.2304   13.8761 C.ar    1  UNL1        0.0090
     16 C          64.0098   82.4939   12.9271 C.ar    1  UNL1        0.0007
     17 C          63.6516   81.1082   12.4781 C.ar    1  UNL1        0.0031
     18 C          62.3951   80.4591   12.9780 C.ar    1  UNL1        0.0366
     19 C          61.4968   81.1957   13.9270 C.ar    1  UNL1        0.1337
     20 O          60.2403   80.5466   14.4269 O.3     1  UNL1       -0.5055
     21 C          61.8550   82.5813   14.3760 C.ar    1  UNL1        0.0371
     22 H          60.0165   79.6810   14.1464 H       1  UNL1        0.2922
@<TRIPOS>BOND
     1     6     7    1
     2     7     8   ar
     3     8     9   ar
     4     9     1    1
     5     1     2   ar
     6     2     3   ar
     7     3     4   ar
     8     4    15    1
     9    15    16   ar
    10    16    17   ar
    11    17    18   ar
    12    18    19   ar
    13    19    20    1
    14    19    21   ar
    15     4     5   ar
    16     9    10   ar
    17    10    11   ar
    18    11    12   ar
    19    12    13    1
    20    12     7   ar
    21     5     1   ar
    22    21    15   ar
    23    20    22    1
    24    13    14    1
@<TRIPOS>MOLECULE
*****
 22 24 0 0 0
SMALL
GASTEIGER

@<TRIPOS>ATOM
      1 C          63.2654   90.5562   11.0880 C.ar    1  UNL1        0.0295
      2 C          63.7801   91.7760   10.3829 C.ar    1  UNL1        0.0070
      3 C          64.7795   92.4432   11.2807 C.ar    1  UNL1        0.0070
      4 C          64.8825   91.6358   12.5407 C.ar    1  UNL1        0.0296
      5 S          63.9467   90.4696   12.4216 S.2     1  UNL1       -0.0869
      6 C          61.4893   85.6972   10.6029 C.3     1  UNL1        0.0342
      7 C          61.3600   87.1627   10.3109 C.ar    1  UNL1        0.0119
      8 C          62.3773   88.1267   10.8454 C.ar    1  UNL1       -0.0008
      9 C          62.2480   89.5923   10.5534 C.ar    1  UNL1        0.0059
     10 C          61.1012   90.0939    9.7268 C.ar    1  UNL1        0.0036
     11 C          60.0839   89.1300    9.1922 C.ar    1  UNL1        0.0363
     12 C          60.2133   87.6644    9.4843 C.ar    1  UNL1        0.1296
     13 O          59.1958   86.7005    8.9497 O.3     1  UNL1       -0.5058
     14 H          58.4795   87.0139    8.4333 H       1  UNL1        0.2922
     15 C          65.7660   91.9410   13.7138 C.ar    1  UNL1        0.0090
     16 C          65.1680   92.1114   15.0788 C.ar    1  UNL1        0.0007
     17 C          66.0516   92.4166   16.2519 C.ar    1  UNL1        0.0031
     18 C          67.5332   92.5514   16.0599 C.ar    1  UNL1        0.0366
     19 C          68.1312   92.3810   14.6949 C.ar    1  UNL1        0.1337
     20 O          69.6127   92.5157   14.5029 O.3     1  UNL1       -0.5055
     21 C          67.2476   92.0758   13.5218 C.ar    1  UNL1        0.0371
     22 H          70.1647   92.7064   15.2357 H       1  UNL1        0.2922
@<TRIPOS>BOND
     1     6     7    1
     2     7     8   ar
     3     8     9   ar
     4     9     1    1
     5     1     2   ar
     6     2     3   ar
     7     3     4   ar
     8     4    15    1
     9    15    16   ar
    10    16    17   ar
    11    17    18   ar
    12    18    19   ar
    13    19    20    1
    14    19    21   ar
    15     4     5   ar
    16     9    10   ar
    17    10    11   ar
    18    11    12   ar
    19    12    13    1
    20    12     7   ar
    21     5     1   ar
    22    21    15   ar
    23    20    22    1
    24    13    14    1
@<TRIPOS>MOLECULE
*****
 22 24 0 0 0
SMALL
GASTEIGER

@<TRIPOS>ATOM
      1 C          63.1904   90.4562   10.9480 C.ar    1  UNL1        0.0295
      2 C          63.8125   91.6147   10.2264 C.ar    1  UNL1        0.0070
      3 C          64.7572   92.2962   11.1713 C.ar    1  UNL1        0.0070
      4 C          64.7190   91.5589   12.4771 C.ar    1  UNL1        0.0296
      5 S          63.7507   90.4217   12.3390 S.2     1  UNL1       -0.0869
      6 C          61.4774   85.5962   10.2803 C.3     1  UNL1        0.0342
      7 C          61.3281   87.0700   10.0448 C.ar    1  UNL1        0.0119
      8 C          62.3338   88.0262   10.6141 C.ar    1  UNL1       -0.0008
      9 C          62.1845   89.5001   10.3786 C.ar    1  UNL1        0.0059
     10 C          61.0295   90.0178    9.5738 C.ar    1  UNL1        0.0036
     11 C          60.0237   89.0616    9.0045 C.ar    1  UNL1        0.0363
     12 C          60.1730   87.5877    9.2400 C.ar    1  UNL1        0.1296
     13 O          59.1672   86.6316    8.6706 O.3     1  UNL1       -0.5058
     14 H          58.4456   86.9550    8.1679 H       1  UNL1        0.2922
     15 C          65.5103   91.8990   13.7052 C.ar    1  UNL1        0.0090
     16 C          67.0028   92.0251   13.6246 C.ar    1  UNL1        0.0007
     17 C          67.7940   92.3653   14.8527 C.ar    1  UNL1        0.0031
     18 C          67.0928   92.5792   16.1613 C.ar    1  UNL1        0.0366
     19 C          65.6003   92.4530   16.2419 C.ar    1  UNL1        0.1337
     20 O          64.8990   92.6669   17.5505 O.3     1  UNL1       -0.5055
     21 C          64.8090   92.1129   15.0138 C.ar    1  UNL1        0.0371
     22 H          65.3933   92.8794   18.3177 H       1  UNL1        0.2922
@<TRIPOS>BOND
     1     6     7    1
     2     7     8   ar
     3     8     9   ar
     4     9     1    1
     5     1     2   ar
     6     2     3   ar
     7     3     4   ar
     8     4    15    1
     9    15    16   ar
    10    16    17   ar
    11    17    18   ar
    12    18    19   ar
    13    19    20    1
    14    19    21   ar
    15     4     5   ar
    16     9    10   ar
    17    10    11   ar
    18    11    12   ar
    19    12    13    1
    20    12     7   ar
    21     5     1   ar
    22    21    15   ar
    23    20    22    1
    24    13    14    1
