@<TRIPOS>MOLECULE
*****
 50 55 0 0 0
SMALL
GASTEIGER

@<TRIPOS>ATOM
      1 C          62.0459   88.5303   10.9394 C.3     1  UNL1        0.1532
      2 O          64.1877   88.7252   13.0310 O.2     1  UNL1       -0.2700
      3 C          63.4125   87.4515   12.8678 C.2     1  UNL1        0.2491
      4 N          62.3416   87.3541   11.8220 N.am    1  UNL1       -0.2945
      5 H          61.8327   86.5181   11.7148 H       1  UNL1        0.1501
      6 C          63.7081   86.2753   13.7504 C.ar    1  UNL1        0.0875
      7 C          64.0599   86.4895   15.1927 C.ar    1  UNL1        0.0076
      8 C          64.3555   85.3132   16.0753 C.ar    1  UNL1        0.0003
      9 C          64.2994   83.9226   15.5155 C.ar    1  UNL1        0.0031
     10 C          63.9476   83.7084   14.0732 C.ar    1  UNL1        0.0373
     11 C          63.6520   84.8848   13.1906 C.ar    1  UNL1        0.1511
     12 O          63.3002   84.6706   11.7483 O.3     1  UNL1       -0.4043
     13 C          63.5251   83.3307   11.1124 C.3     1  UNL1        0.5753
     14 F          63.7501   81.9909   10.4766 F       1  UNL1       -0.1328
     15 F          64.9036   83.7569   10.7022 F       1  UNL1       -0.1328
     16 F          62.1467   82.9045   11.5226 F       1  UNL1       -0.1328
     17 C          62.5332   89.8964   11.3222 C.2     1  UNL1        0.2410
     18 O          61.9678   90.5832   12.5298 O.2     1  UNL1       -0.2733
     19 N          63.5858   90.5757   10.4972 N.am    1  UNL1       -0.2966
     20 H          63.9569   90.1249    9.7045 H       1  UNL1        0.1499
     21 C          64.0730   91.9417   10.8799 C.3     1  UNL1        0.1543
     22 C          64.9964   92.1080   12.0502 C.ar    1  UNL1        0.1417
     23 N          64.6201   91.9744   13.4961 N.ar    1  UNL1       -0.2276
     24 C          65.8493   92.2210   14.3197 C.ar    1  UNL1        0.1167
     25 C          66.0809   92.2220   15.8017 C.ar    1  UNL1        0.0238
     26 C          67.4485   92.5090   16.3468 C.ar    1  UNL1        0.0223
     27 C          68.5845   92.7951   15.4099 C.ar    1  UNL1        0.1006
     28 N          68.3529   92.7941   13.9280 N.ar    1  UNL1       -0.2252
     29 C          66.9853   92.5070   13.3829 C.ar    1  UNL1        0.1626
     30 N          66.4581   92.4372   11.9803 N.ar    1  UNL1       -0.2990
     31 C          67.2532   92.6579   10.7276 C.3     1  UNL1        0.0898
     32 C          68.1961   92.3928    9.5915 C.3     1  UNL1        0.0273
     33 C          67.9550   91.3359   10.6282 C.3     1  UNL1        0.0273
     34 C          66.8276   94.0565   10.3919 C.ar    1  UNL1       -0.0037
     35 C          66.2298   94.9333   11.4520 C.ar    1  UNL1       -0.0025
     36 C          65.8042   96.3320   11.1164 C.ar    1  UNL1       -0.0003
     37 C          65.9764   96.8538    9.7206 C.ar    1  UNL1       -0.0000
     38 C          66.5742   95.9769    8.6605 C.ar    1  UNL1       -0.0003
     39 C          66.9998   94.5783    8.9962 C.ar    1  UNL1       -0.0025
     40 C          61.2631   88.3406    9.6740 C.3     1  UNL1        0.0553
     41 C          61.5045   87.1337    8.8166 C.ar    1  UNL1       -0.0161
     42 C          62.7589   86.3296    8.9895 C.ar    1  UNL1       -0.0042
     43 C          63.0003   85.1227    8.1321 C.ar    1  UNL1       -0.0003
     44 C          61.9873   84.7200    7.1017 C.ar    1  UNL1       -0.0001
     45 C          60.7330   85.5241    6.9287 C.ar    1  UNL1        0.0035
     46 C          60.4916   86.7309    7.7862 C.ar    1  UNL1        0.0675
     47 C          59.2372   87.5351    7.6132 C.3     1  UNL1        0.4183
     48 F          57.9828   88.3392    7.4403 F       1  UNL1       -0.1659
     49 F          58.4396   86.4230    8.2273 F       1  UNL1       -0.1659
     50 F          60.0347   88.6472    6.9991 F       1  UNL1       -0.1659
@<TRIPOS>BOND
     1     2     3    2
     2     3     4   am
     3     4     1    1
     4     1    40    1
     5    40    41    1
     6    41    42   ar
     7    42    43   ar
     8    43    44   ar
     9    44    45   ar
    10    45    46   ar
    11    46    47    1
    12    47    48    1
    13    47    49    1
    14    47    50    1
    15     1    17    1
    16    17    18    2
    17    17    19   am
    18    19    21    1
    19    21    22    1
    20    22    23   ar
    21    23    24   ar
    22    24    25   ar
    23    25    26   ar
    24    26    27   ar
    25    27    28   ar
    26    28    29   ar
    27    29    30   ar
    28    30    31    1
    29    31    34    1
    30    34    35   ar
    31    35    36   ar
    32    36    37   ar
    33    37    38   ar
    34    38    39   ar
    35    31    32    1
    36    32    33    1
    37     3     6    1
    38     6     7   ar
    39     7     8   ar
    40     8     9   ar
    41     9    10   ar
    42    10    11   ar
    43    11    12    1
    44    12    13    1
    45    13    14    1
    46    13    15    1
    47    13    16    1
    48    46    41   ar
    49    30    22   ar
    50    33    31    1
    51    11     6   ar
    52    29    24   ar
    53    39    34   ar
    54     4     5    1
    55    19    20    1
@<TRIPOS>MOLECULE
*****
 50 55 0 0 0
SMALL
GASTEIGER

@<TRIPOS>ATOM
      1 C          62.6937   87.9594   11.1043 C.3     1  UNL1        0.1532
      2 O          63.4425   85.1798   10.2596 O.2     1  UNL1       -0.2700
      3 C          62.8763   85.4211   11.6275 C.2     1  UNL1        0.2491
      4 N          62.5018   86.8109   12.0498 N.am    1  UNL1       -0.2945
      5 H          62.1302   86.9692   12.9476 H       1  UNL1        0.1501
      6 C          62.6844   84.2725   12.5730 C.ar    1  UNL1        0.0875
      7 C          62.3175   82.9181   12.0431 C.ar    1  UNL1        0.0076
      8 C          62.1257   81.7696   12.9886 C.ar    1  UNL1        0.0003
      9 C          62.3007   81.9755   14.4641 C.ar    1  UNL1        0.0031
     10 C          62.6676   83.3300   14.9940 C.ar    1  UNL1        0.0373
     11 C          62.8594   84.4785   14.0484 C.ar    1  UNL1        0.1511
     12 O          63.2263   85.8330   14.5783 O.3     1  UNL1       -0.4043
     13 C          64.6617   86.1640   14.8614 C.3     1  UNL1        0.5753
     14 F          66.0971   86.4950   15.1446 F       1  UNL1       -0.1328
     15 F          65.0841   84.8685   14.2345 F       1  UNL1       -0.1328
     16 F          64.2393   87.4596   15.4884 F       1  UNL1       -0.1328
     17 C          62.9159   89.3428   11.6399 C.2     1  UNL1        0.2410
     18 O          62.3503   89.7303   12.9740 O.2     1  UNL1       -0.2733
     19 N          63.7037   90.3386   10.8414 N.am    1  UNL1       -0.2966
     20 H          64.0750   90.0843    9.9658 H       1  UNL1        0.1499
     21 C          63.9259   91.7220   11.3770 C.3     1  UNL1        0.1543
     22 C          64.9520   91.9567   12.4457 C.ar    1  UNL1        0.1417
     23 N          64.7275   91.8405   13.9242 N.ar    1  UNL1       -0.2276
     24 C          66.0194   92.1608   14.6159 C.ar    1  UNL1        0.1167
     25 C          66.3965   92.2070   16.0669 C.ar    1  UNL1        0.0238
     26 C          67.7965   92.5672   16.4669 C.ar    1  UNL1        0.0223
     27 C          68.8195   92.8813   15.4158 C.ar    1  UNL1        0.1006
     28 N          68.4425   92.8351   13.9647 N.ar    1  UNL1       -0.2252
     29 C          67.0424   92.4748   13.5648 C.ar    1  UNL1        0.1626
     30 N          66.3827   92.3487   12.2235 N.ar    1  UNL1       -0.2990
     31 C          67.0386   92.5748   10.8936 C.3     1  UNL1        0.0898
     32 C          67.8307   92.3054    9.6487 C.3     1  UNL1        0.0273
     33 C          67.6586   91.2263   10.6763 C.3     1  UNL1        0.0273
     34 C          66.6464   94.0018   10.6491 C.ar    1  UNL1       -0.0037
     35 C          66.6606   94.5551    9.2549 C.ar    1  UNL1       -0.0025
     36 C          66.2684   95.9822    9.0103 C.ar    1  UNL1       -0.0003
     37 C          65.8619   96.8558   10.1599 C.ar    1  UNL1       -0.0000
     38 C          65.8477   96.3025   11.5541 C.ar    1  UNL1       -0.0003
     39 C          66.2399   94.8755   11.7986 C.ar    1  UNL1       -0.0025
     40 C          62.6634   87.7245    9.6231 C.3     1  UNL1        0.0553
     41 C          61.3791   87.3384    8.9511 C.ar    1  UNL1       -0.0161
     42 C          61.3029   86.0725    8.1501 C.ar    1  UNL1       -0.0042
     43 C          60.0186   85.6863    7.4781 C.ar    1  UNL1       -0.0003
     44 C          58.8106   86.5661    7.6072 C.ar    1  UNL1       -0.0001
     45 C          58.8868   87.8320    8.4082 C.ar    1  UNL1        0.0035
     46 C          60.1710   88.2181    9.0801 C.ar    1  UNL1        0.0675
     47 C          60.2473   89.4841    9.8812 C.3     1  UNL1        0.4183
     48 F          60.3236   90.7500   10.6822 F       1  UNL1       -0.1659
     49 F          59.5442   88.8061   11.0195 F       1  UNL1       -0.1659
     50 F          60.9505   90.1621    8.7428 F       1  UNL1       -0.1659
@<TRIPOS>BOND
     1     2     3    2
     2     3     4   am
     3     4     1    1
     4     1    40    1
     5    40    41    1
     6    41    42   ar
     7    42    43   ar
     8    43    44   ar
     9    44    45   ar
    10    45    46   ar
    11    46    47    1
    12    47    48    1
    13    47    49    1
    14    47    50    1
    15     1    17    1
    16    17    18    2
    17    17    19   am
    18    19    21    1
    19    21    22    1
    20    22    23   ar
    21    23    24   ar
    22    24    25   ar
    23    25    26   ar
    24    26    27   ar
    25    27    28   ar
    26    28    29   ar
    27    29    30   ar
    28    30    31    1
    29    31    34    1
    30    34    35   ar
    31    35    36   ar
    32    36    37   ar
    33    37    38   ar
    34    38    39   ar
    35    31    32    1
    36    32    33    1
    37     3     6    1
    38     6     7   ar
    39     7     8   ar
    40     8     9   ar
    41     9    10   ar
    42    10    11   ar
    43    11    12    1
    44    12    13    1
    45    13    14    1
    46    13    15    1
    47    13    16    1
    48    46    41   ar
    49    30    22   ar
    50    33    31    1
    51    11     6   ar
    52    29    24   ar
    53    39    34   ar
    54     4     5    1
    55    19    20    1
@<TRIPOS>MOLECULE
*****
 50 55 0 0 0
SMALL
GASTEIGER

@<TRIPOS>ATOM
      1 C          62.0353   88.6447   10.7461 C.3     1  UNL1        0.1532
      2 O          64.1672   88.7666   12.8533 O.2     1  UNL1       -0.2700
      3 C          63.3534   87.5183   12.6811 C.2     1  UNL1        0.2491
      4 N          62.2874   87.4574   11.6274 N.am    1  UNL1       -0.2945
      5 H          61.7533   86.6382   11.5143 H       1  UNL1        0.1501
      6 C          63.6056   86.3310   13.5623 C.ar    1  UNL1        0.0875
      7 C          63.3276   84.9473   13.0543 C.ar    1  UNL1        0.0076
      8 C          63.5797   83.7601   13.9355 C.ar    1  UNL1        0.0003
      9 C          64.1099   83.9564   15.3250 C.ar    1  UNL1        0.0031
     10 C          64.3879   85.3401   15.8331 C.ar    1  UNL1        0.0373
     11 C          64.1357   86.5274   14.9517 C.ar    1  UNL1        0.1511
     12 O          64.4137   87.9111   15.4597 O.3     1  UNL1       -0.4043
     13 C          63.3724   88.6413   16.2552 C.3     1  UNL1        0.5753
     14 F          62.3311   89.3714   17.0505 F       1  UNL1       -0.1328
     15 F          63.2545   87.4660   17.1797 F       1  UNL1       -0.1328
     16 F          63.4902   89.8166   15.3306 F       1  UNL1       -0.1328
     17 C          62.5032   90.0057   11.1692 C.2     1  UNL1        0.2410
     18 O          61.8421   90.7013   12.3220 O.2     1  UNL1       -0.2733
     19 N          63.6323   90.6709   10.4394 N.am    1  UNL1       -0.2966
     20 H          64.0663   90.2143    9.6828 H       1  UNL1        0.1499
     21 C          64.1003   92.0318   10.8624 C.3     1  UNL1        0.1543
     22 C          65.0289   92.1758   12.0316 C.ar    1  UNL1        0.1417
     23 N          64.6519   92.0484   13.4778 N.ar    1  UNL1       -0.2276
     24 C          65.8875   92.2663   14.2999 C.ar    1  UNL1        0.1167
     25 C          66.1213   92.2599   15.7816 C.ar    1  UNL1        0.0238
     26 C          67.4958   92.5156   16.3250 C.ar    1  UNL1        0.0223
     27 C          68.6365   92.7776   15.3868 C.ar    1  UNL1        0.1006
     28 N          68.4027   92.7840   13.9052 N.ar    1  UNL1       -0.2252
     29 C          67.0282   92.5283   13.3617 C.ar    1  UNL1        0.1626
     30 N          66.4975   92.4723   11.9599 N.ar    1  UNL1       -0.2990
     31 C          67.2954   92.6771   10.7063 C.3     1  UNL1        0.0898
     32 C          68.2425   92.3983    9.5770 C.3     1  UNL1        0.0273
     33 C          68.0020   91.3561   10.6286 C.3     1  UNL1        0.0273
     34 C          66.8661   94.0690   10.3486 C.ar    1  UNL1       -0.0037
     35 C          66.2726   94.9634   11.3964 C.ar    1  UNL1       -0.0025
     36 C          65.8432   96.3554   11.0387 C.ar    1  UNL1       -0.0003
     37 C          66.0073   96.8530    9.6332 C.ar    1  UNL1       -0.0000
     38 C          66.6008   95.9586    8.5854 C.ar    1  UNL1       -0.0003
     39 C          67.0301   94.5666    8.9431 C.ar    1  UNL1       -0.0025
     40 C          61.3152   88.4712    9.4418 C.3     1  UNL1        0.0553
     41 C          61.4732   87.2000    8.6612 C.ar    1  UNL1       -0.0161
     42 C          62.7163   86.3748    8.8153 C.ar    1  UNL1       -0.0042
     43 C          62.8742   85.1037    8.0348 C.ar    1  UNL1       -0.0003
     44 C          61.7890   84.6577    7.1002 C.ar    1  UNL1       -0.0001
     45 C          60.5460   85.4829    6.9460 C.ar    1  UNL1        0.0035
     46 C          60.3880   86.7540    7.7266 C.ar    1  UNL1        0.0675
     47 C          59.1449   87.5793    7.5725 C.3     1  UNL1        0.4183
     48 F          57.9018   88.4044    7.4184 F       1  UNL1       -0.1659
     49 F          58.4739   86.7679    8.6408 F       1  UNL1       -0.1659
     50 F          59.8159   88.3906    6.5041 F       1  UNL1       -0.1659
@<TRIPOS>BOND
     1     2     3    2
     2     3     4   am
     3     4     1    1
     4     1    40    1
     5    40    41    1
     6    41    42   ar
     7    42    43   ar
     8    43    44   ar
     9    44    45   ar
    10    45    46   ar
    11    46    47    1
    12    47    48    1
    13    47    49    1
    14    47    50    1
    15     1    17    1
    16    17    18    2
    17    17    19   am
    18    19    21    1
    19    21    22    1
    20    22    23   ar
    21    23    24   ar
    22    24    25   ar
    23    25    26   ar
    24    26    27   ar
    25    27    28   ar
    26    28    29   ar
    27    29    30   ar
    28    30    31    1
    29    31    34    1
    30    34    35   ar
    31    35    36   ar
    32    36    37   ar
    33    37    38   ar
    34    38    39   ar
    35    31    32    1
    36    32    33    1
    37     3     6    1
    38     6     7   ar
    39     7     8   ar
    40     8     9   ar
    41     9    10   ar
    42    10    11   ar
    43    11    12    1
    44    12    13    1
    45    13    14    1
    46    13    15    1
    47    13    16    1
    48    46    41   ar
    49    30    22   ar
    50    33    31    1
    51    11     6   ar
    52    29    24   ar
    53    39    34   ar
    54     4     5    1
    55    19    20    1
@<TRIPOS>MOLECULE
*****
 50 55 0 0 0
SMALL
GASTEIGER

@<TRIPOS>ATOM
      1 C          61.6267   87.4443   11.2198 C.3     1  UNL1        0.1532
      2 O          64.0248   85.9177   12.1782 O.2     1  UNL1       -0.2700
      3 C          62.6648   85.2871   12.2293 C.2     1  UNL1        0.2491
      4 N          61.4657   86.0505   11.7501 N.am    1  UNL1       -0.2945
      5 H          60.5730   85.6366   11.7837 H       1  UNL1        0.1501
      6 C          62.5037   83.8933   12.7597 C.ar    1  UNL1        0.0875
      7 C          62.7171   82.7169   11.8539 C.ar    1  UNL1        0.0076
      8 C          62.5561   81.3231   12.3842 C.ar    1  UNL1        0.0003
      9 C          62.1817   81.1056   13.8204 C.ar    1  UNL1        0.0031
     10 C          61.9684   82.2820   14.7262 C.ar    1  UNL1        0.0373
     11 C          62.1294   83.6759   14.1958 C.ar    1  UNL1        0.1511
     12 O          61.9160   84.8523   15.1016 O.3     1  UNL1       -0.4043
     13 C          62.9657   85.2255   16.1061 C.3     1  UNL1        0.5753
     14 F          64.0153   85.5987   17.1106 F       1  UNL1       -0.1328
     15 F          61.8983   85.7125   17.0406 F       1  UNL1       -0.1328
     16 F          64.0332   84.7386   15.1716 F       1  UNL1       -0.1328
     17 C          62.0874   88.5444   12.1296 C.2     1  UNL1        0.2410
     18 O          61.1243   89.6070   12.5691 O.2     1  UNL1       -0.2733
     19 N          63.5113   88.5818   12.5998 N.am    1  UNL1       -0.2966
     20 H          64.1434   87.8844   12.3114 H       1  UNL1        0.1499
     21 C          63.9720   89.6818   13.5096 C.3     1  UNL1        0.1543
     22 C          64.4943   90.9637   12.9316 C.ar    1  UNL1        0.1417
     23 N          64.4323   91.3704   11.4892 N.ar    1  UNL1       -0.2276
     24 C          65.0699   92.7220   11.3608 C.ar    1  UNL1        0.1167
     25 C          65.2941   93.6178   10.1787 C.ar    1  UNL1        0.0238
     26 C          65.9744   94.9423   10.3598 C.ar    1  UNL1        0.0223
     27 C          66.4304   95.3711   11.7230 C.ar    1  UNL1        0.1006
     28 N          66.2062   94.4753   12.9050 N.ar    1  UNL1       -0.2252
     29 C          65.5259   93.1508   12.7239 C.ar    1  UNL1        0.1626
     30 N          65.1702   92.0641   13.6948 N.ar    1  UNL1       -0.2990
     31 C          65.4425   92.0757   15.1698 C.3     1  UNL1        0.0898
     32 C          65.2041   91.9850   16.6479 C.3     1  UNL1        0.0273
     33 C          64.0663   91.7850   15.6911 C.3     1  UNL1        0.0273
     34 C          66.9132   92.3705   15.1608 C.ar    1  UNL1       -0.0037
     35 C          67.8195   91.6360   14.2179 C.ar    1  UNL1       -0.0025
     36 C          69.2903   91.9308   14.2089 C.ar    1  UNL1       -0.0003
     37 C          69.8546   92.9601   15.1428 C.ar    1  UNL1       -0.0000
     38 C          68.9482   93.6946   16.0857 C.ar    1  UNL1       -0.0003
     39 C          67.4775   93.3998   16.0947 C.ar    1  UNL1       -0.0025
     40 C          61.3270   87.7381    9.7797 C.3     1  UNL1        0.0553
     41 C          61.5289   86.6761    8.7398 C.ar    1  UNL1       -0.0161
     42 C          62.7411   85.7943    8.7939 C.ar    1  UNL1       -0.0042
     43 C          62.9430   84.7323    7.7540 C.ar    1  UNL1       -0.0003
     44 C          61.9326   84.5521    6.6601 C.ar    1  UNL1       -0.0001
     45 C          60.7204   85.4339    6.6060 C.ar    1  UNL1        0.0035
     46 C          60.5186   86.4958    7.6459 C.ar    1  UNL1        0.0675
     47 C          59.3063   87.3777    7.5918 C.3     1  UNL1        0.4183
     48 F          58.0942   88.2595    7.5377 F       1  UNL1       -0.1659
     49 F          60.1431   88.4942    7.0412 F       1  UNL1       -0.1659
     50 F          58.4695   86.2612    8.1424 F       1  UNL1       -0.1659
@<TRIPOS>BOND
     1     2     3    2
     2     3     4   am
     3     4     1    1
     4     1    40    1
     5    40    41    1
     6    41    42   ar
     7    42    43   ar
     8    43    44   ar
     9    44    45   ar
    10    45    46   ar
    11    46    47    1
    12    47    48    1
    13    47    49    1
    14    47    50    1
    15     1    17    1
    16    17    18    2
    17    17    19   am
    18    19    21    1
    19    21    22    1
    20    22    23   ar
    21    23    24   ar
    22    24    25   ar
    23    25    26   ar
    24    26    27   ar
    25    27    28   ar
    26    28    29   ar
    27    29    30   ar
    28    30    31    1
    29    31    34    1
    30    34    35   ar
    31    35    36   ar
    32    36    37   ar
    33    37    38   ar
    34    38    39   ar
    35    31    32    1
    36    32    33    1
    37     3     6    1
    38     6     7   ar
    39     7     8   ar
    40     8     9   ar
    41     9    10   ar
    42    10    11   ar
    43    11    12    1
    44    12    13    1
    45    13    14    1
    46    13    15    1
    47    13    16    1
    48    46    41   ar
    49    30    22   ar
    50    33    31    1
    51    11     6   ar
    52    29    24   ar
    53    39    34   ar
    54     4     5    1
    55    19    20    1
@<TRIPOS>MOLECULE
*****
 50 55 0 0 0
SMALL
GASTEIGER

@<TRIPOS>ATOM
      1 C          63.4151   85.7323   13.2708 C.3     1  UNL1        0.1532
      2 O          63.4954   87.8053   11.1036 O.2     1  UNL1       -0.2700
      3 C          62.3405   86.8518   11.1870 C.2     1  UNL1        0.2491
      4 N          62.3004   85.8153   12.2706 N.am    1  UNL1       -0.2945
      5 H          61.5424   85.1894   12.3253 H       1  UNL1        0.1501
      6 C          61.2258   86.9347   10.1868 C.ar    1  UNL1        0.0875
      7 C          61.2573   86.0782    8.9558 C.ar    1  UNL1        0.0076
      8 C          60.1426   86.1612    7.9556 C.ar    1  UNL1        0.0003
      9 C          58.9962   87.1007    8.1864 C.ar    1  UNL1        0.0031
     10 C          58.9646   87.9571    9.4174 C.ar    1  UNL1        0.0373
     11 C          60.0794   87.8742   10.4176 C.ar    1  UNL1        0.1511
     12 O          60.0478   88.7306   11.6487 O.3     1  UNL1       -0.4043
     13 C          59.3628   90.0648   11.6167 C.3     1  UNL1        0.5753
     14 F          58.6779   91.3988   11.5848 F       1  UNL1       -0.1328
     15 F          60.4442   90.5986   10.7249 F       1  UNL1       -0.1328
     16 F          58.2814   89.5309   12.5086 F       1  UNL1       -0.1328
     17 C          63.8602   86.9643   14.0017 C.2     1  UNL1        0.2410
     18 O          64.6777   86.8397   15.2531 O.2     1  UNL1       -0.2733
     19 N          63.4876   88.3209   13.4812 N.am    1  UNL1       -0.2966
     20 H          62.9510   88.4026   12.6598 H       1  UNL1        0.1499
     21 C          63.9327   89.5528   14.2121 C.3     1  UNL1        0.1543
     22 C          64.4246   90.7438   13.4442 C.ar    1  UNL1        0.1417
     23 N          64.2803   90.9616   11.9672 N.ar    1  UNL1       -0.2276
     24 C          64.9137   92.2786   11.6287 C.ar    1  UNL1        0.1167
     25 C          65.0719   93.0119   10.3298 C.ar    1  UNL1        0.0238
     26 C          65.7657   94.3414   10.2989 C.ar    1  UNL1        0.0223
     27 C          66.3014   94.9375   11.5668 C.ar    1  UNL1        0.1006
     28 N          66.1432   94.2042   12.8657 N.ar    1  UNL1       -0.2252
     29 C          65.4494   92.8747   12.8967 C.ar    1  UNL1        0.1626
     30 N          65.1471   91.9262   14.0187 N.ar    1  UNL1       -0.2990
     31 C          65.5045   92.1251   15.4618 C.3     1  UNL1        0.0898
     32 C          65.3523   92.2264   16.9506 C.3     1  UNL1        0.0273
     33 C          64.1611   91.9129   16.0947 C.3     1  UNL1        0.0273
     34 C          66.9720   92.4065   15.3303 C.ar    1  UNL1       -0.0037
     35 C          67.6062   93.4841   16.1588 C.ar    1  UNL1       -0.0025
     36 C          69.0738   93.7655   16.0273 C.ar    1  UNL1       -0.0003
     37 C          69.9070   92.9692   15.0673 C.ar    1  UNL1       -0.0000
     38 C          69.2727   91.8915   14.2388 C.ar    1  UNL1       -0.0003
     39 C          67.8052   91.6102   14.3703 C.ar    1  UNL1       -0.0025
     40 C          64.0848   84.4174   13.5401 C.3     1  UNL1        0.0553
     41 C          63.2959   83.1440   13.4618 C.ar    1  UNL1       -0.0161
     42 C          62.5134   82.6722   14.6513 C.ar    1  UNL1       -0.0042
     43 C          61.7246   81.3988   14.5730 C.ar    1  UNL1       -0.0003
     44 C          61.7182   80.5972   13.3051 C.ar    1  UNL1       -0.0001
     45 C          62.5008   81.0690   12.1156 C.ar    1  UNL1        0.0035
     46 C          63.2896   82.3424   12.1939 C.ar    1  UNL1        0.0675
     47 C          64.0722   82.8143   11.0044 C.3     1  UNL1        0.4183
     48 F          64.8547   83.2861    9.8149 F       1  UNL1       -0.1659
     49 F          62.8343   83.4468   10.4410 F       1  UNL1       -0.1659
     50 F          65.3101   82.1817   11.5678 F       1  UNL1       -0.1659
@<TRIPOS>BOND
     1     2     3    2
     2     3     4   am
     3     4     1    1
     4     1    40    1
     5    40    41    1
     6    41    42   ar
     7    42    43   ar
     8    43    44   ar
     9    44    45   ar
    10    45    46   ar
    11    46    47    1
    12    47    48    1
    13    47    49    1
    14    47    50    1
    15     1    17    1
    16    17    18    2
    17    17    19   am
    18    19    21    1
    19    21    22    1
    20    22    23   ar
    21    23    24   ar
    22    24    25   ar
    23    25    26   ar
    24    26    27   ar
    25    27    28   ar
    26    28    29   ar
    27    29    30   ar
    28    30    31    1
    29    31    34    1
    30    34    35   ar
    31    35    36   ar
    32    36    37   ar
    33    37    38   ar
    34    38    39   ar
    35    31    32    1
    36    32    33    1
    37     3     6    1
    38     6     7   ar
    39     7     8   ar
    40     8     9   ar
    41     9    10   ar
    42    10    11   ar
    43    11    12    1
    44    12    13    1
    45    13    14    1
    46    13    15    1
    47    13    16    1
    48    46    41   ar
    49    30    22   ar
    50    33    31    1
    51    11     6   ar
    52    29    24   ar
    53    39    34   ar
    54     4     5    1
    55    19    20    1
@<TRIPOS>MOLECULE
*****
 50 55 0 0 0
SMALL
GASTEIGER

@<TRIPOS>ATOM
      1 C          63.3557   85.8442   12.7195 C.3     1  UNL1        0.1532
      2 O          63.7435   85.7820    9.7453 O.2     1  UNL1       -0.2700
      3 C          62.3768   86.0132   10.3188 C.2     1  UNL1        0.2491
      4 N          62.1830   86.0443   11.8059 N.am    1  UNL1       -0.2945
      5 H          61.2861   86.1960   12.1824 H       1  UNL1        0.1501
      6 C          61.2041   86.2132    9.4052 C.ar    1  UNL1        0.0875
      7 C          61.1395   85.4828    8.0967 C.ar    1  UNL1        0.0076
      8 C          59.9668   85.6828    7.1832 C.ar    1  UNL1        0.0003
      9 C          58.8585   86.6134    7.5781 C.ar    1  UNL1        0.0031
     10 C          58.9231   87.3439    8.8867 C.ar    1  UNL1        0.0373
     11 C          60.0960   87.1438    9.8002 C.ar    1  UNL1        0.1511
     12 O          60.1606   87.8742   11.1087 O.3     1  UNL1       -0.4043
     13 C          60.1194   89.3735   11.1336 C.3     1  UNL1        0.5753
     14 F          60.0782   90.8727   11.1584 F       1  UNL1       -0.1328
     15 F          59.0194   89.3264   12.1522 F       1  UNL1       -0.1328
     16 F          61.2195   89.4206   10.1149 F       1  UNL1       -0.1328
     17 C          63.8794   86.9925   13.5302 C.2     1  UNL1        0.2410
     18 O          64.7378   86.7320   14.7324 O.2     1  UNL1       -0.2733
     19 N          63.5446   88.4013   13.1388 N.am    1  UNL1       -0.2966
     20 H          62.9811   88.5722   12.3498 H       1  UNL1        0.1499
     21 C          64.0682   89.5495   13.9495 C.3     1  UNL1        0.1543
     22 C          64.5326   90.8008   13.2649 C.ar    1  UNL1        0.1417
     23 N          64.4155   91.0996   11.7996 N.ar    1  UNL1       -0.2276
     24 C          65.0061   92.4565   11.5545 C.ar    1  UNL1        0.1167
     25 C          65.1672   93.2702   10.3048 C.ar    1  UNL1        0.0238
     26 C          65.8104   94.6237   10.3689 C.ar    1  UNL1        0.0223
     27 C          66.2926   95.1635   11.6827 C.ar    1  UNL1        0.1006
     28 N          66.1315   94.3498   12.9324 N.ar    1  UNL1       -0.2252
     29 C          65.4882   92.9963   12.8684 C.ar    1  UNL1        0.1626
     30 N          65.1956   91.9731   13.9254 N.ar    1  UNL1       -0.2990
     31 C          65.5106   92.0998   15.3865 C.3     1  UNL1        0.0898
     32 C          65.3160   92.1217   16.8736 C.3     1  UNL1        0.0273
     33 C          64.1526   91.8417   15.9691 C.3     1  UNL1        0.0273
     34 C          66.9779   92.4020   15.3113 C.ar    1  UNL1       -0.0037
     35 C          67.5653   93.4854   16.1663 C.ar    1  UNL1       -0.0025
     36 C          69.0326   93.7876   16.0912 C.ar    1  UNL1       -0.0003
     37 C          69.9125   93.0062   15.1610 C.ar    1  UNL1       -0.0000
     38 C          69.3251   91.9227   14.3059 C.ar    1  UNL1       -0.0003
     39 C          67.8578   91.6206   14.3811 C.ar    1  UNL1       -0.0025
     40 C          64.0049   84.4958   12.8223 C.3     1  UNL1        0.0553
     41 C          63.1650   83.2749   13.0547 C.ar    1  UNL1       -0.0161
     42 C          62.9952   82.2622   11.9613 C.ar    1  UNL1       -0.0042
     43 C          62.1553   81.0413   12.1938 C.ar    1  UNL1       -0.0003
     44 C          61.4854   80.8331   13.5196 C.ar    1  UNL1       -0.0001
     45 C          61.6553   81.8458   14.6130 C.ar    1  UNL1        0.0035
     46 C          62.4951   83.0667   14.3806 C.ar    1  UNL1        0.0675
     47 C          62.6650   84.0795   15.4740 C.3     1  UNL1        0.4183
     48 F          62.8349   85.0922   16.5673 F       1  UNL1       -0.1659
     49 F          61.3004   84.6276   15.1783 F       1  UNL1       -0.1659
     50 F          64.0296   83.5314   15.7697 F       1  UNL1       -0.1659
@<TRIPOS>BOND
     1     2     3    2
     2     3     4   am
     3     4     1    1
     4     1    40    1
     5    40    41    1
     6    41    42   ar
     7    42    43   ar
     8    43    44   ar
     9    44    45   ar
    10    45    46   ar
    11    46    47    1
    12    47    48    1
    13    47    49    1
    14    47    50    1
    15     1    17    1
    16    17    18    2
    17    17    19   am
    18    19    21    1
    19    21    22    1
    20    22    23   ar
    21    23    24   ar
    22    24    25   ar
    23    25    26   ar
    24    26    27   ar
    25    27    28   ar
    26    28    29   ar
    27    29    30   ar
    28    30    31    1
    29    31    34    1
    30    34    35   ar
    31    35    36   ar
    32    36    37   ar
    33    37    38   ar
    34    38    39   ar
    35    31    32    1
    36    32    33    1
    37     3     6    1
    38     6     7   ar
    39     7     8   ar
    40     8     9   ar
    41     9    10   ar
    42    10    11   ar
    43    11    12    1
    44    12    13    1
    45    13    14    1
    46    13    15    1
    47    13    16    1
    48    46    41   ar
    49    30    22   ar
    50    33    31    1
    51    11     6   ar
    52    29    24   ar
    53    39    34   ar
    54     4     5    1
    55    19    20    1
@<TRIPOS>MOLECULE
*****
 50 55 0 0 0
SMALL
GASTEIGER

@<TRIPOS>ATOM
      1 C          63.2527   85.8735   12.6758 C.3     1  UNL1        0.1532
      2 O          63.2092   88.0394   10.6005 O.2     1  UNL1       -0.2700
      3 C          62.1072   87.0228   10.6468 C.2     1  UNL1        0.2491
      4 N          62.1290   85.9398   11.6845 N.am    1  UNL1       -0.2945
      5 H          61.4057   85.2726   11.7148 H       1  UNL1        0.1501
      6 C          60.9835   87.0891    9.6554 C.ar    1  UNL1        0.0875
      7 C          59.9603   88.1816    9.7534 C.ar    1  UNL1        0.0076
      8 C          58.8366   88.2480    8.7621 C.ar    1  UNL1        0.0003
      9 C          58.7360   87.2218    7.6726 C.ar    1  UNL1        0.0031
     10 C          59.7592   86.1292    7.5746 C.ar    1  UNL1        0.0373
     11 C          60.8829   86.0630    8.5660 C.ar    1  UNL1        0.1511
     12 O          61.9060   84.9704    8.4680 O.3     1  UNL1       -0.4043
     13 C          62.7020   84.7992    7.2081 C.3     1  UNL1        0.5753
     14 F          63.4980   84.6279    5.9484 F       1  UNL1       -0.1328
     15 F          63.8217   85.5975    7.8071 F       1  UNL1       -0.1328
     16 F          61.5823   84.0008    6.6092 F       1  UNL1       -0.1328
     17 C          63.5885   87.0739   13.5103 C.2     1  UNL1        0.2410
     18 O          63.9772   86.9023   14.9488 O.2     1  UNL1       -0.2733
     19 N          63.5355   88.4458   12.9062 N.am    1  UNL1       -0.2966
     20 H          63.2804   88.5584   11.9621 H       1  UNL1        0.1499
     21 C          63.8713   89.6462   13.7407 C.3     1  UNL1        0.1543
     22 C          64.4067   90.8866   13.0890 C.ar    1  UNL1        0.1417
     23 N          64.3224   91.2225   11.6295 N.ar    1  UNL1       -0.2276
     24 C          64.9840   92.5525   11.4209 C.ar    1  UNL1        0.1167
     25 C          65.2010   93.3836   10.1913 C.ar    1  UNL1        0.0238
     26 C          65.9113   94.7009   10.2923 C.ar    1  UNL1        0.0223
     27 C          66.4045   95.1870   11.6228 C.ar    1  UNL1        0.1006
     28 N          66.1874   94.3559   12.8525 N.ar    1  UNL1       -0.2252
     29 C          65.4772   93.0386   12.7515 C.ar    1  UNL1        0.1626
     30 N          65.1204   92.0091   13.7824 N.ar    1  UNL1       -0.2990
     31 C          65.4240   92.0881   15.2492 C.3     1  UNL1        0.0898
     32 C          65.2167   92.0674   16.7347 C.3     1  UNL1        0.0273
     33 C          64.0581   91.8283   15.8124 C.3     1  UNL1        0.0273
     34 C          66.8953   92.3753   15.1956 C.ar    1  UNL1       -0.0037
     35 C          67.4856   93.4332   16.0800 C.ar    1  UNL1       -0.0025
     36 C          68.9569   93.7205   16.0264 C.ar    1  UNL1       -0.0003
     37 C          69.8378   92.9497   15.0883 C.ar    1  UNL1       -0.0000
     38 C          69.2474   91.8917   14.2039 C.ar    1  UNL1       -0.0003
     39 C          67.7762   91.6045   14.2575 C.ar    1  UNL1       -0.0025
     40 C          64.0406   84.6068   12.8327 C.3     1  UNL1        0.0553
     41 C          63.3298   83.2913   12.9523 C.ar    1  UNL1       -0.0161
     42 C          63.3058   82.3434   11.7900 C.ar    1  UNL1       -0.0042
     43 C          62.5950   81.0279   11.9096 C.ar    1  UNL1       -0.0003
     44 C          61.9082   80.6604   13.1914 C.ar    1  UNL1       -0.0001
     45 C          61.9321   81.6083   14.3537 C.ar    1  UNL1        0.0035
     46 C          62.6429   82.9237   14.2341 C.ar    1  UNL1        0.0675
     47 C          62.6669   83.8717   15.3964 C.3     1  UNL1        0.4183
     48 F          62.6909   84.8196   16.5586 F       1  UNL1       -0.1659
     49 F          64.0126   83.3450   15.7982 F       1  UNL1       -0.1659
     50 F          61.3211   84.3984   14.9946 F       1  UNL1       -0.1659
@<TRIPOS>BOND
     1     2     3    2
     2     3     4   am
     3     4     1    1
     4     1    40    1
     5    40    41    1
     6    41    42   ar
     7    42    43   ar
     8    43    44   ar
     9    44    45   ar
    10    45    46   ar
    11    46    47    1
    12    47    48    1
    13    47    49    1
    14    47    50    1
    15     1    17    1
    16    17    18    2
    17    17    19   am
    18    19    21    1
    19    21    22    1
    20    22    23   ar
    21    23    24   ar
    22    24    25   ar
    23    25    26   ar
    24    26    27   ar
    25    27    28   ar
    26    28    29   ar
    27    29    30   ar
    28    30    31    1
    29    31    34    1
    30    34    35   ar
    31    35    36   ar
    32    36    37   ar
    33    37    38   ar
    34    38    39   ar
    35    31    32    1
    36    32    33    1
    37     3     6    1
    38     6     7   ar
    39     7     8   ar
    40     8     9   ar
    41     9    10   ar
    42    10    11   ar
    43    11    12    1
    44    12    13    1
    45    13    14    1
    46    13    15    1
    47    13    16    1
    48    46    41   ar
    49    30    22   ar
    50    33    31    1
    51    11     6   ar
    52    29    24   ar
    53    39    34   ar
    54     4     5    1
    55    19    20    1
