@<TRIPOS>MOLECULE
*****
 29 31 0 0 0
SMALL
GASTEIGER

@<TRIPOS>ATOM
      1 C          63.5394   89.8531   12.7565 C.ar    1  UNL1        0.1730
      2 C          64.2793   91.1567   12.7010 C.ar    1  UNL1        0.0401
      3 C          64.2677   91.9728   11.4425 C.ar    1  UNL1        0.0039
      4 C          63.5162   91.4853   10.2394 C.ar    1  UNL1        0.0034
      5 C          62.7763   90.1816   10.2948 C.ar    1  UNL1        0.0406
      6 C          62.7879   89.3656   11.5533 C.ar    1  UNL1        0.1790
      7 C          65.0076   93.2765   11.3871 C.2     1  UNL1        0.0113
      8 C          66.2738   93.3870   10.5905 C.2     1  UNL1        0.0873
      9 S          66.9182   92.2857    9.8018 S.3     1  UNL1       -0.0254
     10 C          68.1605   92.8362    9.1665 C.2     1  UNL1        0.2832
     11 O          69.1123   92.0783    8.2892 O.2     1  UNL1       -0.2622
     12 N          68.2839   94.2777    9.5625 N.am    1  UNL1       -0.2425
     13 C          67.1178   94.6181   10.4425 C.2     1  UNL1        0.2583
     14 O          66.8440   95.9549   11.0653 O.2     1  UNL1       -0.2692
     15 H          69.0038   94.8925    9.2922 H       1  UNL1        0.1587
     16 C          63.5968   89.7186   15.3504 C.3     1  UNL1        0.2526
     17 O          63.5510   89.0371   14.0150 O.3     1  UNL1       -0.4684
     18 O          62.0480   88.0619   11.6087 O.3     1  UNL1       -0.4499
     19 C          61.9078   87.2259   10.3712 C.ar    1  UNL1        0.1515
     20 C          62.9618   86.2163   10.0247 C.ar    1  UNL1        0.0379
     21 C          62.8216   85.3804    8.7872 C.ar    1  UNL1        0.0070
     22 C          61.6275   85.5539    7.8961 C.ar    1  UNL1        0.0721
     23 C          60.5736   86.5635    8.2426 C.ar    1  UNL1        0.0136
     24 C          60.7137   87.3995    9.4801 C.ar    1  UNL1        0.0690
     25 BR         59.6598   88.4090    9.8266 Br      1  UNL1       -0.0458
     26 C          61.4873   84.7180    6.6586 C.3     1  UNL1        0.4186
     27 F          61.3471   83.8819    5.4211 F       1  UNL1       -0.1659
     28 F          59.9941   84.8166    6.7611 F       1  UNL1       -0.1659
     29 F          62.9805   84.6193    6.5561 F       1  UNL1       -0.1659
@<TRIPOS>BOND
     1    16    17    1
     2    17     1    1
     3     1     2   ar
     4     2     3   ar
     5     3     7    1
     6     7     8    2
     7     8     9    1
     8     9    10    1
     9    10    11    2
    10    10    12   am
    11    12    13   am
    12    13    14    2
    13     3     4   ar
    14     4     5   ar
    15     5     6   ar
    16     6    18    1
    17    18    19    1
    18    19    20   ar
    19    20    21   ar
    20    21    22   ar
    21    22    26    1
    22    26    27    1
    23    26    28    1
    24    26    29    1
    25    22    23   ar
    26    23    24   ar
    27    24    25    1
    28     6     1   ar
    29    24    19   ar
    30    13     8    1
    31    12    15    1
@<TRIPOS>MOLECULE
*****
 29 31 0 0 0
SMALL
GASTEIGER

@<TRIPOS>ATOM
      1 C          63.3499   88.8043   12.4576 C.ar    1  UNL1        0.1730
      2 C          64.0444   90.1268   12.5935 C.ar    1  UNL1        0.0401
      3 C          63.8477   91.1878   11.5515 C.ar    1  UNL1        0.0039
      4 C          62.9565   90.9261   10.3736 C.ar    1  UNL1        0.0034
      5 C          62.2621   89.6036   10.2378 C.ar    1  UNL1        0.0406
      6 C          62.4588   88.5426   11.2797 C.ar    1  UNL1        0.1790
      7 C          64.5422   92.5104   11.6874 C.2     1  UNL1        0.0113
      8 C          65.6080   92.6945   12.7267 C.2     1  UNL1        0.0873
      9 S          66.0836   91.6533   13.6960 S.3     1  UNL1       -0.0254
     10 C          67.1549   92.2674   14.5475 C.2     1  UNL1        0.2832
     11 O          67.9075   91.5812   15.6487 O.2     1  UNL1       -0.2622
     12 N          67.3415   93.6883   14.1044 N.am    1  UNL1       -0.2425
     13 C          66.3854   93.9522   12.9791 C.2     1  UNL1        0.2583
     14 O          66.2335   95.2467   12.2366 O.2     1  UNL1       -0.2692
     15 H          67.9794   94.3342   14.4853 H       1  UNL1        0.1587
     16 C          64.3256   88.0498   14.7443 C.3     1  UNL1        0.2526
     17 O          63.5466   87.7433   13.4996 O.3     1  UNL1       -0.4684
     18 O          61.7643   87.2200   11.1438 O.3     1  UNL1       -0.4499
     19 C          61.7745   86.4992    9.8284 C.ar    1  UNL1        0.1515
     20 C          62.9397   85.6300    9.4585 C.ar    1  UNL1        0.0379
     21 C          62.9498   84.9092    8.1431 C.ar    1  UNL1        0.0070
     22 C          61.7949   85.0576    7.1975 C.ar    1  UNL1        0.0721
     23 C          60.6297   85.9268    7.5674 C.ar    1  UNL1        0.0136
     24 C          60.6195   86.6477    8.8829 C.ar    1  UNL1        0.0690
     25 BR         59.4543   87.5168    9.2528 Br      1  UNL1       -0.0458
     26 C          61.8050   84.3369    5.8821 C.3     1  UNL1        0.4186
     27 F          61.8153   83.6161    4.5667 F       1  UNL1       -0.1659
     28 F          63.2700   84.6240    5.7361 F       1  UNL1       -0.1659
     29 F          60.3401   84.0497    6.0282 F       1  UNL1       -0.1659
@<TRIPOS>BOND
     1    16    17    1
     2    17     1    1
     3     1     2   ar
     4     2     3   ar
     5     3     7    1
     6     7     8    2
     7     8     9    1
     8     9    10    1
     9    10    11    2
    10    10    12   am
    11    12    13   am
    12    13    14    2
    13     3     4   ar
    14     4     5   ar
    15     5     6   ar
    16     6    18    1
    17    18    19    1
    18    19    20   ar
    19    20    21   ar
    20    21    22   ar
    21    22    26    1
    22    26    27    1
    23    26    28    1
    24    26    29    1
    25    22    23   ar
    26    23    24   ar
    27    24    25    1
    28     6     1   ar
    29    24    19   ar
    30    13     8    1
    31    12    15    1
@<TRIPOS>MOLECULE
*****
 29 31 0 0 0
SMALL
GASTEIGER

@<TRIPOS>ATOM
      1 C          63.0392   89.0731   12.1314 C.ar    1  UNL1        0.1730
      2 C          63.7133   90.1315   12.9533 C.ar    1  UNL1        0.0401
      3 C          64.4869   89.7489   14.1802 C.ar    1  UNL1        0.0039
      4 C          64.5865   88.3081   14.5851 C.ar    1  UNL1        0.0034
      5 C          63.9125   87.2498   13.7632 C.ar    1  UNL1        0.0406
      6 C          63.1388   87.6323   12.5364 C.ar    1  UNL1        0.1790
      7 C          65.1610   90.8073   15.0021 C.2     1  UNL1        0.0113
      8 C          65.7802   91.9973   14.3307 C.2     1  UNL1        0.0873
      9 S          65.8036   92.2638   12.8548 S.3     1  UNL1       -0.0254
     10 C          66.5226   93.5609   12.6293 C.2     1  UNL1        0.2832
     11 O          66.7761   94.2090   11.3005 O.2     1  UNL1       -0.2622
     12 N          66.9434   94.0960   13.9659 N.am    1  UNL1       -0.2425
     13 C          66.4846   93.1296   15.0174 C.2     1  UNL1        0.2583
     14 O          66.6936   93.2709   16.4961 O.2     1  UNL1       -0.2692
     15 H          67.4346   94.9342   14.1251 H       1  UNL1        0.1587
     16 C          60.8581   89.9584   11.0319 C.3     1  UNL1        0.2526
     17 O          62.2656   89.4557   10.9046 O.3     1  UNL1       -0.4684
     18 O          62.4648   86.5739   11.7144 O.3     1  UNL1       -0.4499
     19 C          62.5379   85.1364   12.1367 C.ar    1  UNL1        0.1515
     20 C          62.2447   84.7563   13.5578 C.ar    1  UNL1        0.0379
     21 C          62.3179   83.3189   13.9801 C.ar    1  UNL1        0.0070
     22 C          62.6843   82.2615   12.9812 C.ar    1  UNL1        0.0721
     23 C          62.9775   82.6415   11.5601 C.ar    1  UNL1        0.0136
     24 C          62.9044   84.0791   11.1378 C.ar    1  UNL1        0.0690
     25 BR         63.1976   84.4591    9.7168 Br      1  UNL1       -0.0458
     26 C          62.7575   80.8240   13.4035 C.3     1  UNL1        0.4186
     27 F          62.8308   79.3865   13.8257 F       1  UNL1       -0.1659
     28 F          64.2556   80.8993   13.4001 F       1  UNL1       -0.1659
     29 F          61.2594   80.7487   13.4068 F       1  UNL1       -0.1659
@<TRIPOS>BOND
     1    16    17    1
     2    17     1    1
     3     1     2   ar
     4     2     3   ar
     5     3     7    1
     6     7     8    2
     7     8     9    1
     8     9    10    1
     9    10    11    2
    10    10    12   am
    11    12    13   am
    12    13    14    2
    13     3     4   ar
    14     4     5   ar
    15     5     6   ar
    16     6    18    1
    17    18    19    1
    18    19    20   ar
    19    20    21   ar
    20    21    22   ar
    21    22    26    1
    22    26    27    1
    23    26    28    1
    24    26    29    1
    25    22    23   ar
    26    23    24   ar
    27    24    25    1
    28     6     1   ar
    29    24    19   ar
    30    13     8    1
    31    12    15    1
@<TRIPOS>MOLECULE
*****
 29 31 0 0 0
SMALL
GASTEIGER

@<TRIPOS>ATOM
      1 C          61.5975   89.9152   11.5796 C.ar    1  UNL1        0.1730
      2 C          62.5802   90.8922   12.1539 C.ar    1  UNL1        0.0401
      3 C          63.7685   90.3963   12.9232 C.ar    1  UNL1        0.0039
      4 C          63.9743   88.9233   13.1182 C.ar    1  UNL1        0.0034
      5 C          62.9917   87.9463   12.5439 C.ar    1  UNL1        0.0406
      6 C          61.8033   88.4423   11.7746 C.ar    1  UNL1        0.1790
      7 C          64.7512   91.3734   13.4976 C.2     1  UNL1        0.0113
      8 C          65.4894   92.3144   12.5923 C.2     1  UNL1        0.0873
      9 S          65.3502   92.3944   11.1010 S.3     1  UNL1       -0.0254
     10 C          66.2712   93.4702   10.6064 C.2     1  UNL1        0.2832
     11 O          66.4519   93.8877    9.1771 O.2     1  UNL1       -0.2622
     12 N          66.9796   94.0551   11.7922 N.am    1  UNL1       -0.2425
     13 C          66.4964   93.3408   13.0195 C.2     1  UNL1        0.2583
     14 O          66.9421   93.6063   14.4270 O.2     1  UNL1       -0.2692
     15 H          67.6449   94.7804   11.7690 H       1  UNL1        0.1587
     16 C          59.1100   90.6624   11.5167 C.3     1  UNL1        0.2526
     17 O          60.4092   90.4111   10.8103 O.3     1  UNL1       -0.4684
     18 O          60.8206   87.4652   11.2003 O.3     1  UNL1       -0.4499
     19 C          61.1534   86.7182    9.9428 C.ar    1  UNL1        0.1515
     20 C          62.4073   85.8983    9.8671 C.ar    1  UNL1        0.0379
     21 C          62.7401   85.1513    8.6096 C.ar    1  UNL1        0.0070
     22 C          61.8191   85.2242    7.4279 C.ar    1  UNL1        0.0721
     23 C          60.5653   86.0441    7.5036 C.ar    1  UNL1        0.0136
     24 C          60.2325   86.7911    8.7611 C.ar    1  UNL1        0.0690
     25 BR         58.9787   87.6110    8.8368 Br      1  UNL1       -0.0458
     26 C          62.1519   84.4772    6.1704 C.3     1  UNL1        0.4186
     27 F          62.4847   83.7302    4.9129 F       1  UNL1       -0.1659
     28 F          63.5906   84.8765    6.3140 F       1  UNL1       -0.1659
     29 F          60.7132   84.0780    6.0268 F       1  UNL1       -0.1659
@<TRIPOS>BOND
     1    16    17    1
     2    17     1    1
     3     1     2   ar
     4     2     3   ar
     5     3     7    1
     6     7     8    2
     7     8     9    1
     8     9    10    1
     9    10    11    2
    10    10    12   am
    11    12    13   am
    12    13    14    2
    13     3     4   ar
    14     4     5   ar
    15     5     6   ar
    16     6    18    1
    17    18    19    1
    18    19    20   ar
    19    20    21   ar
    20    21    22   ar
    21    22    26    1
    22    26    27    1
    23    26    28    1
    24    26    29    1
    25    22    23   ar
    26    23    24   ar
    27    24    25    1
    28     6     1   ar
    29    24    19   ar
    30    13     8    1
    31    12    15    1
@<TRIPOS>MOLECULE
*****
 29 31 0 0 0
SMALL
GASTEIGER

@<TRIPOS>ATOM
      1 C          63.3283   87.8430   13.0756 C.ar    1  UNL1        0.1730
      2 C          64.2319   88.9340   13.5689 C.ar    1  UNL1        0.0401
      3 C          63.9852   90.3553   13.1580 C.ar    1  UNL1        0.0039
      4 C          62.8349   90.6857   12.2538 C.ar    1  UNL1        0.0034
      5 C          61.9313   89.5948   11.7605 C.ar    1  UNL1        0.0406
      6 C          62.1780   88.1734   12.1714 C.ar    1  UNL1        0.1790
      7 C          64.8888   91.4463   13.6513 C.2     1  UNL1        0.0113
      8 C          65.5455   92.3755   12.6739 C.2     1  UNL1        0.0873
      9 S          65.3942   92.3366   11.1821 S.3     1  UNL1       -0.0254
     10 C          66.2240   93.4438   10.6029 C.2     1  UNL1        0.2832
     11 O          66.3648   93.7704    9.1457 O.2     1  UNL1       -0.2622
     12 N          66.8882   94.1670   11.7368 N.am    1  UNL1       -0.2425
     13 C          66.4689   93.5068   13.0167 C.2     1  UNL1        0.2583
     14 O          66.8978   93.9075   14.3971 O.2     1  UNL1       -0.2692
     15 H          67.4932   94.9394   11.6552 H       1  UNL1        0.1587
     16 C          64.2994   86.1259   14.7663 C.3     1  UNL1        0.2526
     17 O          63.5750   86.4217   13.4866 O.3     1  UNL1       -0.4684
     18 O          61.2744   87.0825   11.6781 O.3     1  UNL1       -0.4499
     19 C          61.5079   86.4674   10.3301 C.ar    1  UNL1        0.1515
     20 C          62.6431   85.5076   10.1301 C.ar    1  UNL1        0.0379
     21 C          62.8766   84.8925    8.7821 C.ar    1  UNL1        0.0070
     22 C          61.9748   85.2373    7.6340 C.ar    1  UNL1        0.0721
     23 C          60.8396   86.1970    7.8340 C.ar    1  UNL1        0.0136
     24 C          60.6061   86.8121    9.1821 C.ar    1  UNL1        0.0690
     25 BR         59.4709   87.7719    9.3821 Br      1  UNL1       -0.0458
     26 C          62.2083   84.6222    6.2860 C.3     1  UNL1        0.4186
     27 F          62.4417   84.0071    4.9379 F       1  UNL1       -0.1659
     28 F          60.7386   84.3529    6.1544 F       1  UNL1       -0.1659
     29 F          63.6780   84.8916    6.4177 F       1  UNL1       -0.1659
@<TRIPOS>BOND
     1    16    17    1
     2    17     1    1
     3     1     2   ar
     4     2     3   ar
     5     3     7    1
     6     7     8    2
     7     8     9    1
     8     9    10    1
     9    10    11    2
    10    10    12   am
    11    12    13   am
    12    13    14    2
    13     3     4   ar
    14     4     5   ar
    15     5     6   ar
    16     6    18    1
    17    18    19    1
    18    19    20   ar
    19    20    21   ar
    20    21    22   ar
    21    22    26    1
    22    26    27    1
    23    26    28    1
    24    26    29    1
    25    22    23   ar
    26    23    24   ar
    27    24    25    1
    28     6     1   ar
    29    24    19   ar
    30    13     8    1
    31    12    15    1
@<TRIPOS>MOLECULE
*****
 29 31 0 0 0
SMALL
GASTEIGER

@<TRIPOS>ATOM
      1 C          61.9938   88.5847   10.6448 C.ar    1  UNL1        0.1730
      2 C          61.9559   87.1072   10.3888 C.ar    1  UNL1        0.0401
      3 C          62.6458   86.1649   11.3301 C.ar    1  UNL1        0.0039
      4 C          63.3735   86.7001   12.5275 C.ar    1  UNL1        0.0034
      5 C          63.4114   88.1775   12.7836 C.ar    1  UNL1        0.0406
      6 C          62.7216   89.1198   11.8423 C.ar    1  UNL1        0.1790
      7 C          62.6078   84.6874   11.0739 C.2     1  UNL1        0.0113
      8 C          63.0219   83.7287   12.1507 C.2     1  UNL1        0.0873
      9 S          63.4942   84.0976   13.5258 S.3     1  UNL1       -0.0254
     10 C          63.8006   82.8296   14.2664 C.2     1  UNL1        0.2832
     11 O          64.3019   82.7315   15.6767 O.2     1  UNL1       -0.2622
     12 N          63.5178   81.6771   13.3490 N.am    1  UNL1       -0.2425
     13 C          63.0365   82.2327   12.0414 C.2     1  UNL1        0.2583
     14 O          62.6395   81.4328   10.8362 O.2     1  UNL1       -0.2692
     15 H          63.6285   80.7234   13.5668 H       1  UNL1        0.1587
     16 C          60.1900   89.0321    8.8294 C.3     1  UNL1        0.2526
     17 O          61.3039   89.5270    9.7035 O.3     1  UNL1       -0.4684
     18 O          62.7595   90.5974   12.0984 O.3     1  UNL1       -0.4499
     19 C          63.8521   91.1845   12.9418 C.ar    1  UNL1        0.1515
     20 C          63.8790   90.9281   14.4195 C.ar    1  UNL1        0.0379
     21 C          64.9716   91.5153   15.2629 C.ar    1  UNL1        0.0070
     22 C          66.0375   92.3589   14.6286 C.ar    1  UNL1        0.0721
     23 C          66.0107   92.6153   13.1510 C.ar    1  UNL1        0.0136
     24 C          64.9180   92.0281   12.3075 C.ar    1  UNL1        0.0690
     25 BR         64.8912   92.2846   10.8299 Br      1  UNL1       -0.0458
     26 C          67.1301   92.9460   15.4720 C.3     1  UNL1        0.4186
     27 F          68.2228   93.5332   16.3154 F       1  UNL1       -0.1659
     28 F          67.9725   93.1392   14.2461 F       1  UNL1       -0.1659
     29 F          66.2877   92.7528   16.6979 F       1  UNL1       -0.1659
@<TRIPOS>BOND
     1    16    17    1
     2    17     1    1
     3     1     2   ar
     4     2     3   ar
     5     3     7    1
     6     7     8    2
     7     8     9    1
     8     9    10    1
     9    10    11    2
    10    10    12   am
    11    12    13   am
    12    13    14    2
    13     3     4   ar
    14     4     5   ar
    15     5     6   ar
    16     6    18    1
    17    18    19    1
    18    19    20   ar
    19    20    21   ar
    20    21    22   ar
    21    22    26    1
    22    26    27    1
    23    26    28    1
    24    26    29    1
    25    22    23   ar
    26    23    24   ar
    27    24    25    1
    28     6     1   ar
    29    24    19   ar
    30    13     8    1
    31    12    15    1
@<TRIPOS>MOLECULE
*****
 29 31 0 0 0
SMALL
GASTEIGER

@<TRIPOS>ATOM
      1 C          63.2065   90.0013   12.6885 C.ar    1  UNL1        0.1730
      2 C          64.0502   91.2405   12.6375 C.ar    1  UNL1        0.0401
      3 C          64.2030   91.9913   11.3480 C.ar    1  UNL1        0.0039
      4 C          63.5123   91.5028   10.1094 C.ar    1  UNL1        0.0034
      5 C          62.6687   90.2636   10.1603 C.ar    1  UNL1        0.0406
      6 C          62.5158   89.5129   11.4499 C.ar    1  UNL1        0.1790
      7 C          65.0467   93.2306   11.2971 C.2     1  UNL1        0.0113
      8 C          66.3270   93.2347   10.5155 C.2     1  UNL1        0.0873
      9 S          66.8894   92.0814    9.7386 S.3     1  UNL1       -0.0254
     10 C          68.1796   92.5267    9.1165 C.2     1  UNL1        0.2832
     11 O          69.0773   91.6903    8.2536 O.2     1  UNL1       -0.2622
     12 N          68.4147   93.9553    9.5090 N.am    1  UNL1       -0.2425
     13 C          67.2696   94.3928   10.3736 C.2     1  UNL1        0.2583
     14 O          67.0975   95.7501   10.9884 O.2     1  UNL1       -0.2692
     15 H          69.1851   94.5085    9.2454 H       1  UNL1        0.1587
     16 C          64.2427   89.0375   14.8674 C.3     1  UNL1        0.2526
     17 O          63.0537   89.2505   13.9781 O.3     1  UNL1       -0.4684
     18 O          61.6721   88.2736   11.5008 O.3     1  UNL1       -0.4499
     19 C          62.3234   86.9224   11.5014 C.ar    1  UNL1        0.1515
     20 C          62.9655   86.3999   12.7524 C.ar    1  UNL1        0.0379
     21 C          63.6168   85.0488   12.7531 C.ar    1  UNL1        0.0070
     22 C          63.6261   84.2200   11.5028 C.ar    1  UNL1        0.0721
     23 C          62.9840   84.7424   10.2519 C.ar    1  UNL1        0.0136
     24 C          62.3327   86.0936   10.2512 C.ar    1  UNL1        0.0690
     25 BR         61.6906   86.6161    9.0003 Br      1  UNL1       -0.0458
     26 C          64.2774   82.8688   11.5035 C.3     1  UNL1        0.4186
     27 F          64.9287   81.5175   11.5042 F       1  UNL1       -0.1659
     28 F          63.9885   82.7288   10.0383 F       1  UNL1       -0.1659
     29 F          64.5663   83.0088   12.9687 F       1  UNL1       -0.1659
@<TRIPOS>BOND
     1    16    17    1
     2    17     1    1
     3     1     2   ar
     4     2     3   ar
     5     3     7    1
     6     7     8    2
     7     8     9    1
     8     9    10    1
     9    10    11    2
    10    10    12   am
    11    12    13   am
    12    13    14    2
    13     3     4   ar
    14     4     5   ar
    15     5     6   ar
    16     6    18    1
    17    18    19    1
    18    19    20   ar
    19    20    21   ar
    20    21    22   ar
    21    22    26    1
    22    26    27    1
    23    26    28    1
    24    26    29    1
    25    22    23   ar
    26    23    24   ar
    27    24    25    1
    28     6     1   ar
    29    24    19   ar
    30    13     8    1
    31    12    15    1
@<TRIPOS>MOLECULE
*****
 29 31 0 0 0
SMALL
GASTEIGER

@<TRIPOS>ATOM
      1 C          63.3398   87.0180   13.0292 C.ar    1  UNL1        0.1730
      2 C          63.4866   85.6197   12.5068 C.ar    1  UNL1        0.0401
      3 C          62.8953   85.2492   11.1789 C.ar    1  UNL1        0.0039
      4 C          62.1572   86.2771   10.3736 C.ar    1  UNL1        0.0034
      5 C          62.0103   87.6754   10.8961 C.ar    1  UNL1        0.0406
      6 C          62.6016   88.0459   12.2239 C.ar    1  UNL1        0.1790
      7 C          63.0421   83.8508   10.6565 C.2     1  UNL1        0.0113
      8 C          62.8776   82.6828   11.5831 C.2     1  UNL1        0.0873
      9 S          62.5668   82.7570   13.0487 S.3     1  UNL1       -0.0254
     10 C          62.4920   81.3556   13.5783 C.2     1  UNL1        0.2832
     11 O          62.2034   80.9635   14.9971 O.2     1  UNL1       -0.2622
     12 N          62.7566   80.4152   12.4400 N.am    1  UNL1       -0.2425
     13 C          62.9949   81.2355   11.2070 C.2     1  UNL1        0.2583
     14 O          63.2974   80.7020    9.8381 O.2     1  UNL1       -0.2692
     15 H          62.7713   79.4323   12.4930 H       1  UNL1        0.1587
     16 C          64.2707   86.3183   15.3517 C.3     1  UNL1        0.2526
     17 O          63.9311   87.3885   14.3571 O.3     1  UNL1       -0.4684
     18 O          62.4548   89.4443   12.7464 O.3     1  UNL1       -0.4499
     19 C          63.4165   90.5112   12.3143 C.ar    1  UNL1        0.1515
     20 C          63.4268   90.9793   10.8892 C.ar    1  UNL1        0.0379
     21 C          64.3885   92.0462   10.4572 C.ar    1  UNL1        0.0070
     22 C          65.3400   92.6451   11.4502 C.ar    1  UNL1        0.0721
     23 C          65.3297   92.1771   12.8752 C.ar    1  UNL1        0.0136
     24 C          64.3679   91.1101   13.3073 C.ar    1  UNL1        0.0690
     25 BR         64.3577   90.6421   14.7324 Br      1  UNL1       -0.0458
     26 C          66.3017   93.7120   11.0181 C.3     1  UNL1        0.4186
     27 F          67.2635   94.7790   10.5861 F       1  UNL1       -0.1659
     28 F          66.1221   94.4072   12.3350 F       1  UNL1       -0.1659
     29 F          66.4813   93.0168    9.7012 F       1  UNL1       -0.1659
@<TRIPOS>BOND
     1    16    17    1
     2    17     1    1
     3     1     2   ar
     4     2     3   ar
     5     3     7    1
     6     7     8    2
     7     8     9    1
     8     9    10    1
     9    10    11    2
    10    10    12   am
    11    12    13   am
    12    13    14    2
    13     3     4   ar
    14     4     5   ar
    15     5     6   ar
    16     6    18    1
    17    18    19    1
    18    19    20   ar
    19    20    21   ar
    20    21    22   ar
    21    22    26    1
    22    26    27    1
    23    26    28    1
    24    26    29    1
    25    22    23   ar
    26    23    24   ar
    27    24    25    1
    28     6     1   ar
    29    24    19   ar
    30    13     8    1
    31    12    15    1
@<TRIPOS>MOLECULE
*****
 29 31 0 0 0
SMALL
GASTEIGER

@<TRIPOS>ATOM
      1 C          61.7612   87.5572   10.4162 C.ar    1  UNL1        0.1730
      2 C          62.0035   86.1383    9.9945 C.ar    1  UNL1        0.0401
      3 C          62.7675   85.2094   10.8909 C.ar    1  UNL1        0.0039
      4 C          63.2893   85.6996   12.2090 C.ar    1  UNL1        0.0034
      5 C          63.0470   87.1185   12.6307 C.ar    1  UNL1        0.0406
      6 C          62.2830   88.0473   11.7344 C.ar    1  UNL1        0.1790
      7 C          63.0098   83.7904   10.4691 C.2     1  UNL1        0.0113
      8 C          62.8621   82.6769   11.4632 C.2     1  UNL1        0.0873
      9 S          62.4800   82.8278   12.9058 S.3     1  UNL1       -0.0254
     10 C          62.4523   81.4611   13.5235 C.2     1  UNL1        0.2832
     11 O          62.1182   81.1455   14.9513 O.2     1  UNL1       -0.2622
     12 N          62.8173   80.4656   12.4625 N.am    1  UNL1       -0.2425
     13 C          63.0706   81.2170   11.1892 C.2     1  UNL1        0.2583
     14 O          63.4634   80.6142    9.8730 O.2     1  UNL1       -0.2692
     15 H          62.8797   79.4902   12.5811 H       1  UNL1        0.1587
     16 C          59.8772   87.9585    8.6728 C.3     1  UNL1        0.2526
     17 O          60.9972   88.4860    9.5198 O.3     1  UNL1       -0.4684
     18 O          62.0407   89.4663   12.1561 O.3     1  UNL1       -0.4499
     19 C          63.0822   90.5141   11.8967 C.ar    1  UNL1        0.1515
     20 C          63.2548   91.0744   10.5160 C.ar    1  UNL1        0.0379
     21 C          64.2963   92.1221   10.2566 C.ar    1  UNL1        0.0070
     22 C          65.1653   92.6097   11.3778 C.ar    1  UNL1        0.0721
     23 C          64.9928   92.0494   12.7585 C.ar    1  UNL1        0.0136
     24 C          63.9512   91.0016   13.0180 C.ar    1  UNL1        0.0690
     25 BR         63.7787   90.4413   14.3986 Br      1  UNL1       -0.0458
     26 C          66.2068   93.6574   11.1184 C.3     1  UNL1        0.4186
     27 F          67.2484   94.7053   10.8590 F       1  UNL1       -0.1659
     28 F          66.0880   94.1271   12.5379 F       1  UNL1       -0.1659
     29 F          66.3257   93.1878    9.6988 F       1  UNL1       -0.1659
@<TRIPOS>BOND
     1    16    17    1
     2    17     1    1
     3     1     2   ar
     4     2     3   ar
     5     3     7    1
     6     7     8    2
     7     8     9    1
     8     9    10    1
     9    10    11    2
    10    10    12   am
    11    12    13   am
    12    13    14    2
    13     3     4   ar
    14     4     5   ar
    15     5     6   ar
    16     6    18    1
    17    18    19    1
    18    19    20   ar
    19    20    21   ar
    20    21    22   ar
    21    22    26    1
    22    26    27    1
    23    26    28    1
    24    26    29    1
    25    22    23   ar
    26    23    24   ar
    27    24    25    1
    28     6     1   ar
    29    24    19   ar
    30    13     8    1
    31    12    15    1
