@<TRIPOS>MOLECULE
*****
 25 27 0 0 0
SMALL
GASTEIGER

@<TRIPOS>ATOM
      1 C          63.1947   88.0919   16.1253 C.ar    1  UNL1        0.3134
      2 N          63.6650   86.7486   15.6519 N.ar    1  UNL1       -0.1854
      3 C          62.8267   85.7011   16.3229 C.ar    1  UNL1        0.2051
      4 N          61.8383   86.3972   17.2109 N.ar    1  UNL1       -0.0582
      5 O          62.0658   87.8748   17.0888 O.2     1  UNL1       -0.3279
      6 O          63.3710   90.6632   16.4537 O.2     1  UNL1       -0.2649
      7 C          63.7551   89.4195   15.7083 C.2     1  UNL1        0.3022
      8 N          64.6994   89.5032   14.5459 N.am    1  UNL1       -0.2986
      9 H          64.9515   88.6869   14.0567 H       1  UNL1        0.1498
     10 C          65.2598   90.8307   14.1289 C.3     1  UNL1        0.0720
     11 C          64.8226   91.4572   12.8381 C.3     1  UNL1        0.0196
     12 C          65.3830   92.7847   12.4212 C.3     1  UNL1        0.0017
     13 C          66.3805   93.4856   13.2951 C.3     1  UNL1        0.0001
     14 C          66.8177   92.8590   14.5859 C.3     1  UNL1        0.0017
     15 C          66.2574   91.5316   15.0028 C.3     1  UNL1        0.0196
     16 C          62.9543   84.2180   16.1382 C.3     1  UNL1        0.2245
     17 S          63.1374   83.6464   14.7635 S.O2    1  UNL1        0.0162
     18 O          62.0816   84.5729   14.2376 O.2     1  UNL1       -0.1682
     19 O          64.1932   82.7198   15.2896 O.2     1  UNL1       -0.1682
     20 C          63.3205   83.0748   13.3890 C.ar    1  UNL1        0.1062
     21 C          62.6005   81.8185   12.9970 C.ar    1  UNL1        0.0184
     22 C          62.7836   81.2469   11.6224 C.ar    1  UNL1        0.0013
     23 C          63.6867   81.9314   10.6396 C.ar    1  UNL1        0.0001
     24 C          64.4068   83.1876   11.0315 C.ar    1  UNL1        0.0013
     25 C          64.2237   83.7593   12.4062 C.ar    1  UNL1        0.0184
@<TRIPOS>BOND
     1     6     7    2
     2     7     8   am
     3     8    10    1
     4    10    11    1
     5    11    12    1
     6    12    13    1
     7    13    14    1
     8    14    15    1
     9     7     1    1
    10     1     2   ar
    11     2     3   ar
    12     3    16    1
    13    16    17    1
    14    17    18    2
    15    17    19    2
    16    17    20    1
    17    20    21   ar
    18    21    22   ar
    19    22    23   ar
    20    23    24   ar
    21    24    25   ar
    22     3     4   ar
    23     4     5   ar
    24    15    10    1
    25     5     1   ar
    26    25    20   ar
    27     8     9    1
@<TRIPOS>MOLECULE
*****
 25 27 0 0 0
SMALL
GASTEIGER

@<TRIPOS>ATOM
      1 C          63.3415   86.1428   15.6415 C.ar    1  UNL1        0.3134
      2 N          63.7720   87.4583   15.0634 N.ar    1  UNL1       -0.1854
      3 C          63.4585   88.5297   16.0653 C.ar    1  UNL1        0.2051
      4 N          62.8343   87.8763   17.2627 N.ar    1  UNL1       -0.0582
      5 O          62.7620   86.4012   17.0007 O.2     1  UNL1       -0.3279
      6 O          64.7237   84.0000   15.1433 O.2     1  UNL1       -0.2649
      7 C          63.4683   84.8040   14.9770 C.2     1  UNL1        0.3022
      8 N          62.3397   84.2691   14.1462 N.am    1  UNL1       -0.2986
      9 H          61.5158   84.7968   14.0371 H       1  UNL1        0.1498
     10 C          62.4665   82.9303   13.4817 C.3     1  UNL1        0.0720
     11 C          62.1172   81.6821   14.2367 C.3     1  UNL1        0.0196
     12 C          62.2440   80.3434   13.5722 C.3     1  UNL1        0.0017
     13 C          62.7201   80.2528   12.1527 C.3     1  UNL1        0.0001
     14 C          63.0694   81.5009   11.3977 C.3     1  UNL1        0.0017
     15 C          62.9426   82.8397   12.0622 C.3     1  UNL1        0.0196
     16 C          63.7228   89.9969   15.8991 C.3     1  UNL1        0.2245
     17 S          63.9439   90.5688   14.5302 S.O2    1  UNL1        0.0162
     18 O          65.3232   90.9991   14.9327 O.2     1  UNL1       -0.1682
     19 O          62.5645   90.1383   14.1277 O.2     1  UNL1       -0.1682
     20 C          64.1650   91.1406   13.1613 C.ar    1  UNL1        0.1062
     21 C          65.2745   92.1232   12.9292 C.ar    1  UNL1        0.0184
     22 C          65.4956   92.6951   11.5602 C.ar    1  UNL1        0.0013
     23 C          64.6073   92.2845   10.4234 C.ar    1  UNL1        0.0001
     24 C          63.4978   91.3020   10.6555 C.ar    1  UNL1        0.0013
     25 C          63.2767   90.7300   12.0245 C.ar    1  UNL1        0.0184
@<TRIPOS>BOND
     1     6     7    2
     2     7     8   am
     3     8    10    1
     4    10    11    1
     5    11    12    1
     6    12    13    1
     7    13    14    1
     8    14    15    1
     9     7     1    1
    10     1     2   ar
    11     2     3   ar
    12     3    16    1
    13    16    17    1
    14    17    18    2
    15    17    19    2
    16    17    20    1
    17    20    21   ar
    18    21    22   ar
    19    22    23   ar
    20    23    24   ar
    21    24    25   ar
    22     3     4   ar
    23     4     5   ar
    24    15    10    1
    25     5     1   ar
    26    25    20   ar
    27     8     9    1
@<TRIPOS>MOLECULE
*****
 25 27 0 0 0
SMALL
GASTEIGER

@<TRIPOS>ATOM
      1 C          63.3567   86.1546   15.5994 C.ar    1  UNL1        0.3134
      2 N          63.7858   87.4740   15.0293 N.ar    1  UNL1       -0.1854
      3 C          63.4690   88.5393   16.0369 C.ar    1  UNL1        0.2051
      4 N          62.8442   87.8781   17.2296 N.ar    1  UNL1       -0.0582
      5 O          62.7748   86.4043   16.9592 O.2     1  UNL1       -0.3279
      6 O          64.7744   84.0559   15.0200 O.2     1  UNL1       -0.2649
      7 C          63.4868   84.8197   14.9275 C.2     1  UNL1        0.3022
      8 N          62.3293   84.2488   14.1632 N.am    1  UNL1       -0.2986
      9 H          61.4842   84.7502   14.1025 H       1  UNL1        0.1498
     10 C          62.4594   82.9140   13.4914 C.3     1  UNL1        0.0720
     11 C          62.9379   82.8322   12.0721 C.3     1  UNL1        0.0196
     12 C          63.0679   81.4974   11.4003 C.3     1  UNL1        0.0017
     13 C          62.7195   80.2444   12.1478 C.3     1  UNL1        0.0001
     14 C          62.2410   80.3262   13.5670 C.3     1  UNL1        0.0017
     15 C          62.1110   81.6610   14.2388 C.3     1  UNL1        0.0196
     16 C          63.7310   90.0078   15.8794 C.3     1  UNL1        0.2245
     17 S          63.9586   90.5869   14.5145 S.O2    1  UNL1        0.0162
     18 O          65.3238   91.0435   14.9358 O.2     1  UNL1       -0.1682
     19 O          62.5933   90.1302   14.0932 O.2     1  UNL1       -0.1682
     20 C          64.1861   91.1659   13.1497 C.ar    1  UNL1        0.1062
     21 C          63.3138   90.7486   12.0029 C.ar    1  UNL1        0.0184
     22 C          63.5414   91.3277   10.6380 C.ar    1  UNL1        0.0013
     23 C          64.6412   92.3241   10.4199 C.ar    1  UNL1        0.0001
     24 C          65.5135   92.7414   11.5667 C.ar    1  UNL1        0.0013
     25 C          65.2859   92.1623   12.9315 C.ar    1  UNL1        0.0184
@<TRIPOS>BOND
     1     6     7    2
     2     7     8   am
     3     8    10    1
     4    10    11    1
     5    11    12    1
     6    12    13    1
     7    13    14    1
     8    14    15    1
     9     7     1    1
    10     1     2   ar
    11     2     3   ar
    12     3    16    1
    13    16    17    1
    14    17    18    2
    15    17    19    2
    16    17    20    1
    17    20    21   ar
    18    21    22   ar
    19    22    23   ar
    20    23    24   ar
    21    24    25   ar
    22     3     4   ar
    23     4     5   ar
    24    15    10    1
    25     5     1   ar
    26    25    20   ar
    27     8     9    1
@<TRIPOS>MOLECULE
*****
 25 27 0 0 0
SMALL
GASTEIGER

@<TRIPOS>ATOM
      1 C          62.5809   89.9433   12.6167 C.ar    1  UNL1        0.3134
      2 N          63.8445   90.6513   12.2267 N.ar    1  UNL1       -0.1854
      3 C          64.4605   91.2192   13.4709 C.ar    1  UNL1        0.2051
      4 N          63.5776   90.8622   14.6299 N.ar    1  UNL1       -0.0582
      5 O          62.4159   90.0736   14.1019 O.2     1  UNL1       -0.3279
      6 O          60.2638   88.8687   12.1409 O.2     1  UNL1       -0.2649
      7 C          61.6463   89.2301   11.6849 C.2     1  UNL1        0.3022
      8 N          62.0943   88.8784   10.2973 N.am    1  UNL1       -0.2986
      9 H          63.0018   89.1157    9.9981 H       1  UNL1        0.1498
     10 C          61.1598   88.1653    9.3656 C.3     1  UNL1        0.0720
     11 C          61.2957   86.6866    9.1536 C.3     1  UNL1        0.0196
     12 C          60.3611   85.9735    8.2219 C.3     1  UNL1        0.0017
     13 C          59.2907   86.7391    7.5022 C.3     1  UNL1        0.0001
     14 C          59.1548   88.2178    7.7141 C.3     1  UNL1        0.0017
     15 C          60.0893   88.9309    8.6458 C.3     1  UNL1        0.0196
     16 C          65.7355   92.0060   13.5435 C.3     1  UNL1        0.2245
     17 S          66.3546   92.5483   12.2894 S.O2    1  UNL1        0.0162
     18 O          67.6929   92.0306   12.7263 O.2     1  UNL1       -0.1682
     19 O          65.0163   93.0659   11.8526 O.2     1  UNL1       -0.1682
     20 C          66.9737   93.0905   11.0355 C.ar    1  UNL1        0.1062
     21 C          66.7055   94.5061   10.6180 C.ar    1  UNL1        0.0184
     22 C          67.3246   95.0483    9.3639 C.ar    1  UNL1        0.0013
     23 C          68.2120   94.1750    8.5273 C.ar    1  UNL1        0.0001
     24 C          68.4802   92.7594    8.9448 C.ar    1  UNL1        0.0013
     25 C          67.8611   92.2172   10.1988 C.ar    1  UNL1        0.0184
@<TRIPOS>BOND
     1     6     7    2
     2     7     8   am
     3     8    10    1
     4    10    11    1
     5    11    12    1
     6    12    13    1
     7    13    14    1
     8    14    15    1
     9     7     1    1
    10     1     2   ar
    11     2     3   ar
    12     3    16    1
    13    16    17    1
    14    17    18    2
    15    17    19    2
    16    17    20    1
    17    20    21   ar
    18    21    22   ar
    19    22    23   ar
    20    23    24   ar
    21    24    25   ar
    22     3     4   ar
    23     4     5   ar
    24    15    10    1
    25     5     1   ar
    26    25    20   ar
    27     8     9    1
@<TRIPOS>MOLECULE
*****
 25 27 0 0 0
SMALL
GASTEIGER

@<TRIPOS>ATOM
      1 C          64.0595   89.1356   14.7014 C.ar    1  UNL1        0.3134
      2 N          65.1461   90.0312   14.1845 N.ar    1  UNL1       -0.1854
      3 C          65.0150   91.3605   14.8673 C.ar    1  UNL1        0.2051
      4 N          63.8474   91.2862   15.8061 N.ar    1  UNL1       -0.0582
      5 O          63.2569   89.9112   15.7035 O.2     1  UNL1       -0.3279
      6 O          63.4049   87.4016   12.8807 O.2     1  UNL1       -0.2649
      7 C          63.8179   87.7138   14.2885 C.2     1  UNL1        0.3022
      8 N          63.9893   86.6045   15.2834 N.am    1  UNL1       -0.2986
      9 H          64.2604   86.8095   16.2074 H       1  UNL1        0.1498
     10 C          63.7478   85.1827   14.8705 C.3     1  UNL1        0.0720
     11 C          64.6896   84.5081   13.9177 C.3     1  UNL1        0.0196
     12 C          64.4480   83.0865   13.5049 C.3     1  UNL1        0.0017
     13 C          63.2646   82.3394   14.0448 C.3     1  UNL1        0.0001
     14 C          62.3228   83.0141   14.9976 C.3     1  UNL1        0.0017
     15 C          62.5644   84.4357   15.4104 C.3     1  UNL1        0.0196
     16 C          65.8967   92.5543   14.6495 C.3     1  UNL1        0.2245
     17 S          66.3414   92.9153   13.2631 S.O2    1  UNL1        0.0162
     18 O          64.9362   92.7430   12.7675 O.2     1  UNL1       -0.1682
     19 O          67.7466   93.0876   13.7588 O.2     1  UNL1       -0.1682
     20 C          66.7861   93.2763   11.8769 C.ar    1  UNL1        0.1062
     21 C          67.5610   92.2880   11.0565 C.ar    1  UNL1        0.0184
     22 C          68.0057   92.6490    9.6702 C.ar    1  UNL1        0.0013
     23 C          67.6755   93.9983    9.1042 C.ar    1  UNL1        0.0001
     24 C          66.9006   94.9866    9.9245 C.ar    1  UNL1        0.0013
     25 C          66.4559   94.6256   11.3108 C.ar    1  UNL1        0.0184
@<TRIPOS>BOND
     1     6     7    2
     2     7     8   am
     3     8    10    1
     4    10    11    1
     5    11    12    1
     6    12    13    1
     7    13    14    1
     8    14    15    1
     9     7     1    1
    10     1     2   ar
    11     2     3   ar
    12     3    16    1
    13    16    17    1
    14    17    18    2
    15    17    19    2
    16    17    20    1
    17    20    21   ar
    18    21    22   ar
    19    22    23   ar
    20    23    24   ar
    21    24    25   ar
    22     3     4   ar
    23     4     5   ar
    24    15    10    1
    25     5     1   ar
    26    25    20   ar
    27     8     9    1
@<TRIPOS>MOLECULE
*****
 25 27 0 0 0
SMALL
GASTEIGER

@<TRIPOS>ATOM
      1 C          63.0742   90.4821   11.5160 C.ar    1  UNL1        0.3134
      2 N          62.8751   88.9959   11.4766 N.ar    1  UNL1       -0.1854
      3 C          61.6631   88.7127   10.6391 C.ar    1  UNL1        0.2051
      4 N          61.1134   90.0240   10.1610 N.ar    1  UNL1       -0.0582
      5 O          61.9855   91.1175   10.7029 O.2     1  UNL1       -0.3279
      6 O          64.7898   92.4296   11.6345 O.2     1  UNL1       -0.2649
      7 C          64.1699   91.2059   12.2412 C.2     1  UNL1        0.3022
      8 N          64.6455   90.7059   13.5730 N.am    1  UNL1       -0.2986
      9 H          64.2385   89.9027   13.9711 H       1  UNL1        0.1498
     10 C          65.7411   91.4296   14.2982 C.3     1  UNL1        0.0720
     11 C          65.4773   92.0330   15.6459 C.3     1  UNL1        0.0196
     12 C          66.5729   92.7567   16.3710 C.3     1  UNL1        0.0017
     13 C          67.9323   92.8771   15.7484 C.3     1  UNL1        0.0001
     14 C          68.1961   92.2737   14.4007 C.3     1  UNL1        0.0017
     15 C          67.1005   91.5500   13.6756 C.3     1  UNL1        0.0196
     16 C          61.0999   87.3565   10.3335 C.3     1  UNL1        0.2245
     17 S          61.8998   86.1255   10.6412 S.O2    1  UNL1        0.0162
     18 O          61.3760   86.1364   12.0467 O.2     1  UNL1       -0.1682
     19 O          62.4236   86.1146    9.2357 O.2     1  UNL1       -0.1682
     20 C          62.6997   84.8945   10.9489 C.ar    1  UNL1        0.1062
     21 C          62.7423   84.3584   12.3493 C.ar    1  UNL1        0.0184
     22 C          63.5422   83.1273   12.6570 C.ar    1  UNL1        0.0013
     23 C          64.2994   82.4324   11.5645 C.ar    1  UNL1        0.0001
     24 C          64.2568   82.9685   10.1641 C.ar    1  UNL1        0.0013
     25 C          63.4569   84.1995    9.8564 C.ar    1  UNL1        0.0184
@<TRIPOS>BOND
     1     6     7    2
     2     7     8   am
     3     8    10    1
     4    10    11    1
     5    11    12    1
     6    12    13    1
     7    13    14    1
     8    14    15    1
     9     7     1    1
    10     1     2   ar
    11     2     3   ar
    12     3    16    1
    13    16    17    1
    14    17    18    2
    15    17    19    2
    16    17    20    1
    17    20    21   ar
    18    21    22   ar
    19    22    23   ar
    20    23    24   ar
    21    24    25   ar
    22     3     4   ar
    23     4     5   ar
    24    15    10    1
    25     5     1   ar
    26    25    20   ar
    27     8     9    1
@<TRIPOS>MOLECULE
*****
 25 27 0 0 0
SMALL
GASTEIGER

@<TRIPOS>ATOM
      1 C          62.5406   87.7652   11.3021 C.ar    1  UNL1        0.3134
      2 N          62.7755   88.7866   12.3752 N.ar    1  UNL1       -0.1854
      3 C          62.9386   90.1236   11.7148 C.ar    1  UNL1        0.2051
      4 N          62.8045   89.9283   10.2335 N.ar    1  UNL1       -0.0582
      5 O          62.5585   88.4707    9.9786 O.2     1  UNL1       -0.3279
      6 O          61.3870   85.5383   10.6236 O.2     1  UNL1       -0.2649
      7 C          62.3255   86.2960   11.5153 C.2     1  UNL1        0.3022
      8 N          63.0488   85.5847   12.6202 N.am    1  UNL1       -0.2986
      9 H          63.6648   86.0820   13.2054 H       1  UNL1        0.1498
     10 C          62.8337   84.1155   12.8334 C.3     1  UNL1        0.0720
     11 C          62.3588   83.6124   14.1642 C.3     1  UNL1        0.0196
     12 C          62.1437   82.1433   14.3774 C.3     1  UNL1        0.0017
     13 C          62.4036   81.1773   13.2596 C.3     1  UNL1        0.0001
     14 C          62.8786   81.6804   11.9288 C.3     1  UNL1        0.0017
     15 C          63.0936   83.1495   11.7156 C.3     1  UNL1        0.0196
     16 C          63.1914   91.4269   12.4129 C.3     1  UNL1        0.2245
     17 S          64.4833   91.6488   13.1422 S.O2    1  UNL1        0.0162
     18 O          65.1628   91.9637   11.8426 O.2     1  UNL1       -0.1682
     19 O          63.8037   91.3339   14.4418 O.2     1  UNL1       -0.1682
     20 C          65.7751   91.8708   13.8714 C.ar    1  UNL1        0.1062
     21 C          65.7648   92.1711   15.3410 C.ar    1  UNL1        0.0184
     22 C          67.0567   92.3930   16.0703 C.ar    1  UNL1        0.0013
     23 C          68.3589   92.3147   15.3299 C.ar    1  UNL1        0.0001
     24 C          68.3692   92.0144   13.8603 C.ar    1  UNL1        0.0013
     25 C          67.0773   91.7924   13.1310 C.ar    1  UNL1        0.0184
@<TRIPOS>BOND
     1     6     7    2
     2     7     8   am
     3     8    10    1
     4    10    11    1
     5    11    12    1
     6    12    13    1
     7    13    14    1
     8    14    15    1
     9     7     1    1
    10     1     2   ar
    11     2     3   ar
    12     3    16    1
    13    16    17    1
    14    17    18    2
    15    17    19    2
    16    17    20    1
    17    20    21   ar
    18    21    22   ar
    19    22    23   ar
    20    23    24   ar
    21    24    25   ar
    22     3     4   ar
    23     4     5   ar
    24    15    10    1
    25     5     1   ar
    26    25    20   ar
    27     8     9    1
@<TRIPOS>MOLECULE
*****
 25 27 0 0 0
SMALL
GASTEIGER

@<TRIPOS>ATOM
      1 C          64.0892   87.7083   13.8468 C.ar    1  UNL1        0.3134
      2 N          63.5623   88.6533   12.8078 N.ar    1  UNL1       -0.1854
      3 C          63.9197   90.0487   13.2265 C.ar    1  UNL1        0.2051
      4 N          64.6675   89.9660   14.5243 N.ar    1  UNL1       -0.0582
      5 O          64.7722   88.5196   14.9076 O.2     1  UNL1       -0.3279
      6 O          64.9311   85.3651   14.5889 O.2     1  UNL1       -0.2649
      7 C          63.9563   86.2143   13.8282 C.2     1  UNL1        0.3022
      8 N          62.8486   85.5695   13.0489 N.am    1  UNL1       -0.2986
      9 H          62.2089   86.1269   12.5496 H       1  UNL1        0.1498
     10 C          62.7158   84.0755   13.0303 C.3     1  UNL1        0.0720
     11 C          62.2814   83.3457   14.2667 C.3     1  UNL1        0.0196
     12 C          62.1485   81.8517   14.2480 C.3     1  UNL1        0.0017
     13 C          62.4500   81.0876   12.9930 C.3     1  UNL1        0.0001
     14 C          62.8844   81.8173   11.7566 C.3     1  UNL1        0.0017
     15 C          63.0173   83.3113   11.7753 C.3     1  UNL1        0.0196
     16 C          63.5877   91.3059   12.4788 C.3     1  UNL1        0.2245
     17 S          64.6620   92.0413   11.7337 S.O2    1  UNL1        0.0162
     18 O          65.1601   92.6210   13.0243 O.2     1  UNL1       -0.1682
     19 O          64.1638   91.4615   10.4432 O.2     1  UNL1       -0.1682
     20 C          65.7363   92.7767   10.9888 C.ar    1  UNL1        0.1062
     21 C          65.6188   94.2561   10.7697 C.ar    1  UNL1        0.0184
     22 C          66.6931   94.9915   10.0247 C.ar    1  UNL1        0.0013
     23 C          67.8848   94.2477    9.4988 C.ar    1  UNL1        0.0001
     24 C          68.0023   92.7684    9.7179 C.ar    1  UNL1        0.0013
     25 C          66.9280   92.0329   10.4629 C.ar    1  UNL1        0.0184
@<TRIPOS>BOND
     1     6     7    2
     2     7     8   am
     3     8    10    1
     4    10    11    1
     5    11    12    1
     6    12    13    1
     7    13    14    1
     8    14    15    1
     9     7     1    1
    10     1     2   ar
    11     2     3   ar
    12     3    16    1
    13    16    17    1
    14    17    18    2
    15    17    19    2
    16    17    20    1
    17    20    21   ar
    18    21    22   ar
    19    22    23   ar
    20    23    24   ar
    21    24    25   ar
    22     3     4   ar
    23     4     5   ar
    24    15    10    1
    25     5     1   ar
    26    25    20   ar
    27     8     9    1
@<TRIPOS>MOLECULE
*****
 25 27 0 0 0
SMALL
GASTEIGER

@<TRIPOS>ATOM
      1 C          63.2304   90.7591   12.4617 C.ar    1  UNL1        0.3134
      2 N          62.4705   89.4719   12.5857 N.ar    1  UNL1       -0.1854
      3 C          61.6207   89.3153   11.3595 C.ar    1  UNL1        0.2051
      4 N          61.8555   90.5058   10.4777 N.ar    1  UNL1       -0.0582
      5 O          62.8504   91.3982   11.1589 O.2     1  UNL1       -0.3279
      6 O          63.7875   91.4701   14.8978 O.2     1  UNL1       -0.2649
      7 C          64.2002   91.3106   13.4645 C.2     1  UNL1        0.3022
      8 N          65.5826   91.7025   13.0340 N.am    1  UNL1       -0.2986
      9 H          65.8534   91.5978   12.0933 H       1  UNL1        0.1498
     10 C          66.5523   92.2539   14.0368 C.3     1  UNL1        0.0720
     11 C          67.2987   91.3249   14.9478 C.3     1  UNL1        0.0196
     12 C          68.2684   91.8764   15.9505 C.3     1  UNL1        0.0017
     13 C          68.4918   93.3568   16.0423 C.3     1  UNL1        0.0001
     14 C          67.7454   94.2858   15.1314 C.3     1  UNL1        0.0017
     15 C          66.7757   93.7344   14.1286 C.3     1  UNL1        0.0196
     16 C          60.6981   88.1694   11.0666 C.3     1  UNL1        0.2245
     17 S          60.9819   87.2542    9.9125 S.O2    1  UNL1        0.0162
     18 O          62.0427   86.5659   10.7191 O.2     1  UNL1       -0.1682
     19 O          59.9210   87.9426    9.1058 O.2     1  UNL1       -0.1682
     20 C          61.2657   86.3391    8.7585 C.ar    1  UNL1        0.1062
     21 C          62.6350   85.7512    8.5865 C.ar    1  UNL1        0.0184
     22 C          62.9188   84.8360    7.4324 C.ar    1  UNL1        0.0013
     23 C          61.8333   84.5086    6.4503 C.ar    1  UNL1        0.0001
     24 C          60.4640   85.0965    6.6223 C.ar    1  UNL1        0.0013
     25 C          60.1802   86.0117    7.7763 C.ar    1  UNL1        0.0184
@<TRIPOS>BOND
     1     6     7    2
     2     7     8   am
     3     8    10    1
     4    10    11    1
     5    11    12    1
     6    12    13    1
     7    13    14    1
     8    14    15    1
     9     7     1    1
    10     1     2   ar
    11     2     3   ar
    12     3    16    1
    13    16    17    1
    14    17    18    2
    15    17    19    2
    16    17    20    1
    17    20    21   ar
    18    21    22   ar
    19    22    23   ar
    20    23    24   ar
    21    24    25   ar
    22     3     4   ar
    23     4     5   ar
    24    15    10    1
    25     5     1   ar
    26    25    20   ar
    27     8     9    1
