@<TRIPOS>MOLECULE
*****
 26 30 0 0 0
SMALL
GASTEIGER

@<TRIPOS>ATOM
      1 C          63.0713   84.4729   13.1710 C.ar    1  UNL1        0.0772
      2 C          62.5373   85.3620   12.0873 C.ar    1  UNL1        0.0356
      3 C          62.8080   86.8370   12.1258 C.ar    1  UNL1        0.0816
      4 C          63.6128   87.4227   13.2481 C.ar    1  UNL1        0.1027
      5 C          64.1468   86.5335   14.3318 C.ar    1  UNL1        0.0516
      6 C          63.8760   85.0586   14.2931 C.ar    1  UNL1        0.1549
      7 F          64.4100   84.1695   15.3768 F       1  UNL1       -0.2028
      8 N          63.8835   88.8975   13.2867 N.ar    1  UNL1       -0.2050
      9 N          64.6390   89.7542   14.2589 N.ar    1  UNL1       -0.1408
     10 C          64.5720   91.1728   13.7761 C.ar    1  UNL1        0.2214
     11 N          63.7750   91.1929   12.5055 N.ar    1  UNL1       -0.1990
     12 C          63.3495   89.7866   12.2030 C.ar    1  UNL1        0.2225
     13 C          62.5448   89.2009   11.0808 C.ar    1  UNL1        0.2969
     14 O          62.0107   90.0900    9.9971 O.2     1  UNL1       -0.2636
     15 N          62.2741   87.7261   11.0423 N.ar    1  UNL1       -0.2934
     16 N          62.7763   79.4625   11.5310 N.3     1  UNL1       -0.3208
     17 C          62.6650   80.6950   12.3786 C.3     1  UNL1        0.0725
     18 C          62.1030   80.7619   13.7677 C.3     1  UNL1        0.0386
     19 C          62.1868   82.1853   14.2336 C.3     1  UNL1        0.0923
     20 N          62.8006   82.9981   13.1324 N.pl3   1  UNL1       -0.3043
     21 C          63.0962   82.0770   11.9860 C.3     1  UNL1        0.1063
     22 H          62.4080   78.6621   12.0449 H       1  UNL1        0.1189
     23 H          63.7557   79.2965   11.2994 H       1  UNL1        0.1189
     24 C          61.4693   87.1404    9.9200 C.3     1  UNL1        0.0887
     25 C          61.3789   86.2651    8.7052 C.3     1  UNL1        0.0246
     26 C          60.1657   87.0013    9.1911 C.3     1  UNL1        0.0246
@<TRIPOS>BOND
     1    17    16    1
     2    17    18    1
     3    18    19    1
     4    19    20    1
     5    20     1    1
     6     1     2   ar
     7     2     3   ar
     8     3     4   ar
     9     4     5   ar
    10     5     6   ar
    11     6     7    1
    12     4     8   ar
    13     8     9   ar
    14     9    10   ar
    15    10    11   ar
    16    11    12   ar
    17    12    13   ar
    18    13    14    2
    19    13    15   ar
    20    15    24    1
    21    24    25    1
    22    25    26    1
    23    20    21    1
    24    21    17    1
    25     6     1   ar
    26    12     8   ar
    27    26    24    1
    28    15     3   ar
    29    16    22    1
    30    16    23    1
@<TRIPOS>MOLECULE
*****
 26 30 0 0 0
SMALL
GASTEIGER

@<TRIPOS>ATOM
      1 C          63.2714   85.5659   13.4150 C.ar    1  UNL1        0.0772
      2 C          62.8265   86.5291   12.3547 C.ar    1  UNL1        0.0356
      3 C          63.2275   87.9723   12.4365 C.ar    1  UNL1        0.0816
      4 C          64.0734   88.4521   13.5786 C.ar    1  UNL1        0.1027
      5 C          64.5182   87.4888   14.6389 C.ar    1  UNL1        0.0516
      6 C          64.1173   86.0458   14.5571 C.ar    1  UNL1        0.1549
      7 F          64.5622   85.0825   15.6174 F       1  UNL1       -0.2028
      8 N          64.4743   89.8952   13.6604 N.ar    1  UNL1       -0.2050
      9 N          65.2964   90.6534   14.6600 N.ar    1  UNL1       -0.1408
     10 C          65.3596   92.0853   14.2175 C.ar    1  UNL1        0.2214
     11 N          64.5766   92.2120   12.9444 N.ar    1  UNL1       -0.1990
     12 C          64.0294   90.8585   12.6000 C.ar    1  UNL1        0.2225
     13 C          63.1836   90.3786   11.4580 C.ar    1  UNL1        0.2969
     14 O          62.7387   91.3419   10.3977 O.2     1  UNL1       -0.2636
     15 N          62.7827   88.9355   11.3763 N.ar    1  UNL1       -0.2934
     16 N          61.4443   80.7811   14.6985 N.3     1  UNL1       -0.3208
     17 C          62.0306   81.9234   13.9232 C.3     1  UNL1        0.0725
     18 C          62.4764   81.8807   12.4917 C.3     1  UNL1        0.0386
     19 C          62.9955   83.2400   12.1271 C.3     1  UNL1        0.0923
     20 N          62.8705   84.1228   13.3333 N.pl3   1  UNL1       -0.3043
     21 C          62.2742   83.3091   14.4434 C.3     1  UNL1        0.1063
     22 H          61.3915   79.9561   14.1009 H       1  UNL1        0.1189
     23 H          60.5079   81.0310   15.0165 H       1  UNL1        0.1189
     24 C          61.9368   88.4557   10.2341 C.3     1  UNL1        0.0887
     25 C          60.7782   88.6546    9.3024 C.3     1  UNL1        0.0246
     26 C          61.6304   87.4256    9.1877 C.3     1  UNL1        0.0246
@<TRIPOS>BOND
     1    17    16    1
     2    17    18    1
     3    18    19    1
     4    19    20    1
     5    20     1    1
     6     1     2   ar
     7     2     3   ar
     8     3     4   ar
     9     4     5   ar
    10     5     6   ar
    11     6     7    1
    12     4     8   ar
    13     8     9   ar
    14     9    10   ar
    15    10    11   ar
    16    11    12   ar
    17    12    13   ar
    18    13    14    2
    19    13    15   ar
    20    15    24    1
    21    24    25    1
    22    25    26    1
    23    20    21    1
    24    21    17    1
    25     6     1   ar
    26    12     8   ar
    27    26    24    1
    28    15     3   ar
    29    16    22    1
    30    16    23    1
@<TRIPOS>MOLECULE
*****
 26 30 0 0 0
SMALL
GASTEIGER

@<TRIPOS>ATOM
      1 C          64.2684   90.2673   13.5586 C.ar    1  UNL1        0.0772
      2 C          64.1696   88.7857   13.7709 C.ar    1  UNL1        0.0356
      3 C          63.4283   87.9342   12.7831 C.ar    1  UNL1        0.0816
      4 C          62.7858   88.5645   11.5830 C.ar    1  UNL1        0.1027
      5 C          62.8847   90.0462   11.3708 C.ar    1  UNL1        0.0516
      6 C          63.6260   90.8975   12.3585 C.ar    1  UNL1        0.1549
      7 F          63.7248   92.3791   12.1463 F       1  UNL1       -0.2028
      8 N          62.0446   87.7131   10.5953 N.ar    1  UNL1       -0.2050
      9 N          61.3153   88.0495    9.3284 N.ar    1  UNL1       -0.1408
     10 C          60.7658   86.7758    8.7577 C.ar    1  UNL1        0.2214
     11 N          61.1555   85.6522    9.6719 N.ar    1  UNL1       -0.1990
     12 C          61.9458   86.2315   10.8076 C.ar    1  UNL1        0.2225
     13 C          62.5883   85.6013   12.0076 C.ar    1  UNL1        0.2969
     14 O          62.4895   84.1197   12.2199 O.2     1  UNL1       -0.2636
     15 N          63.3295   86.4527   12.9953 N.ar    1  UNL1       -0.2934
     16 N          68.0415   93.1496   15.8688 N.3     1  UNL1       -0.3208
     17 C          66.7440   92.4435   15.6082 C.3     1  UNL1        0.0725
     18 C          65.5567   92.4142   16.5244 C.3     1  UNL1        0.0386
     19 C          64.4848   91.5954   15.8681 C.3     1  UNL1        0.0923
     20 N          65.0097   91.1187   14.5463 N.pl3   1  UNL1       -0.3043
     21 C          66.4059   91.6428   14.3856 C.3     1  UNL1        0.1063
     22 H          67.9991   93.6152   16.7753 H       1  UNL1        0.1189
     23 H          68.2044   93.8422   15.1380 H       1  UNL1        0.1189
     24 C          63.9720   85.8224   14.1954 C.3     1  UNL1        0.0887
     25 C          63.9935   85.5663   15.6732 C.3     1  UNL1        0.0246
     26 C          65.0633   84.9868   14.7960 C.3     1  UNL1        0.0246
@<TRIPOS>BOND
     1    17    16    1
     2    17    18    1
     3    18    19    1
     4    19    20    1
     5    20     1    1
     6     1     2   ar
     7     2     3   ar
     8     3     4   ar
     9     4     5   ar
    10     5     6   ar
    11     6     7    1
    12     4     8   ar
    13     8     9   ar
    14     9    10   ar
    15    10    11   ar
    16    11    12   ar
    17    12    13   ar
    18    13    14    2
    19    13    15   ar
    20    15    24    1
    21    24    25    1
    22    25    26    1
    23    20    21    1
    24    21    17    1
    25     6     1   ar
    26    12     8   ar
    27    26    24    1
    28    15     3   ar
    29    16    22    1
    30    16    23    1
@<TRIPOS>MOLECULE
*****
 26 30 0 0 0
SMALL
GASTEIGER

@<TRIPOS>ATOM
      1 C          62.4598   89.4334   10.5605 C.ar    1  UNL1        0.0772
      2 C          63.0593   89.3571   11.9334 C.ar    1  UNL1        0.0356
      3 C          63.9417   90.4643   12.4291 C.ar    1  UNL1        0.0816
      4 C          64.2244   91.6478   11.5518 C.ar    1  UNL1        0.1027
      5 C          63.6249   91.7241   10.1789 C.ar    1  UNL1        0.0516
      6 C          62.7426   90.6169    9.6833 C.ar    1  UNL1        0.1549
      7 F          62.1431   90.6932    8.3104 F       1  UNL1       -0.2028
      8 N          65.1067   92.7550   12.0476 N.ar    1  UNL1       -0.2050
      9 N          65.5612   94.0363   11.4138 N.ar    1  UNL1       -0.1408
     10 C          66.4416   94.7519   12.3950 C.ar    1  UNL1        0.2214
     11 N          66.5312   93.9129   13.6352 N.ar    1  UNL1       -0.1990
     12 C          65.7062   92.6787   13.4204 C.ar    1  UNL1        0.2225
     13 C          65.4235   91.4952   14.2976 C.ar    1  UNL1        0.2969
     14 O          66.0230   91.4189   15.6705 O.2     1  UNL1       -0.2636
     15 N          64.5412   90.3881   13.8019 N.ar    1  UNL1       -0.2934
     16 N          58.5549   86.8203    8.1515 N.3     1  UNL1       -0.3208
     17 C          59.7826   87.1251    8.9575 C.3     1  UNL1        0.0725
     18 C          60.6571   86.1198    9.6464 C.3     1  UNL1        0.0386
     19 C          61.7664   86.8622   10.3308 C.3     1  UNL1        0.0923
     20 N          61.5775   88.3263   10.0648 N.pl3   1  UNL1       -0.3043
     21 C          60.3515   88.4888    9.2160 C.3     1  UNL1        0.1063
     22 H          58.3977   85.8125    8.1394 H       1  UNL1        0.1189
     23 H          58.6828   87.1559    7.1969 H       1  UNL1        0.1189
     24 C          64.2584   89.2046   14.6791 C.3     1  UNL1        0.0887
     25 C          64.3894   87.7377   14.9637 C.3     1  UNL1        0.0246
     26 C          63.6376   88.6218   15.9140 C.3     1  UNL1        0.0246
@<TRIPOS>BOND
     1    17    16    1
     2    17    18    1
     3    18    19    1
     4    19    20    1
     5    20     1    1
     6     1     2   ar
     7     2     3   ar
     8     3     4   ar
     9     4     5   ar
    10     5     6   ar
    11     6     7    1
    12     4     8   ar
    13     8     9   ar
    14     9    10   ar
    15    10    11   ar
    16    11    12   ar
    17    12    13   ar
    18    13    14    2
    19    13    15   ar
    20    15    24    1
    21    24    25    1
    22    25    26    1
    23    20    21    1
    24    21    17    1
    25     6     1   ar
    26    12     8   ar
    27    26    24    1
    28    15     3   ar
    29    16    22    1
    30    16    23    1
@<TRIPOS>MOLECULE
*****
 26 30 0 0 0
SMALL
GASTEIGER

@<TRIPOS>ATOM
      1 C          61.7475   87.4893    9.9492 C.ar    1  UNL1        0.0772
      2 C          62.3660   86.7388   11.0912 C.ar    1  UNL1        0.0356
      3 C          63.0055   87.4882   12.2225 C.ar    1  UNL1        0.0816
      4 C          63.0264   88.9881   12.2115 C.ar    1  UNL1        0.1027
      5 C          62.4079   89.7385   11.0694 C.ar    1  UNL1        0.0516
      6 C          61.7685   88.9891    9.9383 C.ar    1  UNL1        0.1549
      7 F          61.1500   89.7395    8.7962 F       1  UNL1       -0.2028
      8 N          63.6659   89.7374   13.3427 N.ar    1  UNL1       -0.2050
      9 N          63.8374   91.2043   13.6049 N.ar    1  UNL1       -0.1408
     10 C          64.5619   91.3604   14.9090 C.ar    1  UNL1        0.2214
     11 N          64.8381   89.9900   15.4528 N.ar    1  UNL1       -0.1990
     12 C          64.2844   88.9869   14.4847 C.ar    1  UNL1        0.2225
     13 C          64.2634   87.4871   14.4956 C.ar    1  UNL1        0.2969
     14 O          64.8819   86.7366   15.6377 O.2     1  UNL1       -0.2636
     15 N          63.6239   86.7378   13.3645 N.ar    1  UNL1       -0.2934
     16 N          61.0060   84.1842    5.8985 N.3     1  UNL1       -0.3208
     17 C          60.7672   85.2208    6.9561 C.3     1  UNL1        0.0725
     18 C          59.4806   85.9529    7.1984 C.3     1  UNL1        0.0386
     19 C          59.6913   86.8918    8.3492 C.3     1  UNL1        0.0923
     20 N          61.1080   86.7399    8.8180 N.pl3   1  UNL1       -0.3043
     21 C          61.7730   85.7072    7.9570 C.3     1  UNL1        0.1063
     22 H          60.1519   84.0467    5.3582 H       1  UNL1        0.1189
     23 H          61.2750   83.3045    6.3392 H       1  UNL1        0.1189
     24 C          63.6030   85.2379   13.3754 C.3     1  UNL1        0.0887
     25 C          62.8821   83.9507   13.6465 C.3     1  UNL1        0.0246
     26 C          64.2877   83.9273   13.1232 C.3     1  UNL1        0.0246
@<TRIPOS>BOND
     1    17    16    1
     2    17    18    1
     3    18    19    1
     4    19    20    1
     5    20     1    1
     6     1     2   ar
     7     2     3   ar
     8     3     4   ar
     9     4     5   ar
    10     5     6   ar
    11     6     7    1
    12     4     8   ar
    13     8     9   ar
    14     9    10   ar
    15    10    11   ar
    16    11    12   ar
    17    12    13   ar
    18    13    14    2
    19    13    15   ar
    20    15    24    1
    21    24    25    1
    22    25    26    1
    23    20    21    1
    24    21    17    1
    25     6     1   ar
    26    12     8   ar
    27    26    24    1
    28    15     3   ar
    29    16    22    1
    30    16    23    1
@<TRIPOS>MOLECULE
*****
 26 30 0 0 0
SMALL
GASTEIGER

@<TRIPOS>ATOM
      1 C          62.2286   86.8814   10.9929 C.ar    1  UNL1        0.0772
      2 C          62.7247   86.4878   12.3526 C.ar    1  UNL1        0.0356
      3 C          62.9332   85.0398   12.6847 C.ar    1  UNL1        0.0816
      4 C          62.6456   83.9857   11.6570 C.ar    1  UNL1        0.1027
      5 C          62.1495   84.3795   10.2973 C.ar    1  UNL1        0.0516
      6 C          61.9411   85.8273    9.9652 C.ar    1  UNL1        0.1549
      7 F          61.4450   86.2210    8.6055 F       1  UNL1       -0.2028
      8 N          62.8541   82.5379   11.9891 N.ar    1  UNL1       -0.2050
      9 N          62.6574   81.2857   11.1870 N.ar    1  UNL1       -0.1408
     10 C          63.0319   80.1182   12.0510 C.ar    1  UNL1        0.2214
     11 N          63.4601   80.6487   13.3871 N.ar    1  UNL1       -0.1990
     12 C          63.3502   82.1442   13.3489 C.ar    1  UNL1        0.2225
     13 C          63.6378   83.1983   14.3765 C.ar    1  UNL1        0.2969
     14 O          64.1339   82.8047   15.7363 O.2     1  UNL1       -0.2636
     15 N          63.4293   84.6462   14.0444 N.ar    1  UNL1       -0.2934
     16 N          63.1462   91.9516    9.8385 N.3     1  UNL1       -0.3208
     17 C          62.4419   90.6597   10.1302 C.3     1  UNL1        0.0725
     18 C          60.9565   90.4548   10.1692 C.3     1  UNL1        0.0386
     19 C          60.6958   89.0144   10.4972 C.3     1  UNL1        0.0923
     20 N          62.0201   88.3293   10.6608 N.pl3   1  UNL1       -0.3043
     21 C          63.0993   89.3461   10.4340 C.3     1  UNL1        0.1063
     22 H          62.4569   92.6836    9.6675 H       1  UNL1        0.1189
     23 H          63.7347   91.8391    9.0130 H       1  UNL1        0.1189
     24 C          63.7169   85.7003   15.0721 C.3     1  UNL1        0.0887
     25 C          63.5881   86.2168   16.4745 C.3     1  UNL1        0.0246
     26 C          64.3439   87.0096   15.4497 C.3     1  UNL1        0.0246
@<TRIPOS>BOND
     1    17    16    1
     2    17    18    1
     3    18    19    1
     4    19    20    1
     5    20     1    1
     6     1     2   ar
     7     2     3   ar
     8     3     4   ar
     9     4     5   ar
    10     5     6   ar
    11     6     7    1
    12     4     8   ar
    13     8     9   ar
    14     9    10   ar
    15    10    11   ar
    16    11    12   ar
    17    12    13   ar
    18    13    14    2
    19    13    15   ar
    20    15    24    1
    21    24    25    1
    22    25    26    1
    23    20    21    1
    24    21    17    1
    25     6     1   ar
    26    12     8   ar
    27    26    24    1
    28    15     3   ar
    29    16    22    1
    30    16    23    1
@<TRIPOS>MOLECULE
*****
 26 30 0 0 0
SMALL
GASTEIGER

@<TRIPOS>ATOM
      1 C          65.4761   91.3342   13.5611 C.ar    1  UNL1        0.0772
      2 C          65.0031   89.9257   13.7670 C.ar    1  UNL1        0.0356
      3 C          63.9603   89.3443   12.8587 C.ar    1  UNL1        0.0816
      4 C          63.3906   90.1716   11.7447 C.ar    1  UNL1        0.1027
      5 C          63.8636   91.5802   11.5389 C.ar    1  UNL1        0.0516
      6 C          64.9063   92.1614   12.4471 C.ar    1  UNL1        0.1549
      7 F          65.3792   93.5700   12.2412 F       1  UNL1       -0.2028
      8 N          62.3479   89.5903   10.8365 N.ar    1  UNL1       -0.2050
      9 N          61.6087   90.1606    9.6625 N.ar    1  UNL1       -0.1408
     10 C          60.6788   89.1045    9.1428 C.ar    1  UNL1        0.2214
     11 N          60.8434   87.8815    9.9956 N.ar    1  UNL1       -0.1990
     12 C          61.8750   88.1817   11.0424 C.ar    1  UNL1        0.2225
     13 C          62.4447   87.3546   12.1564 C.ar    1  UNL1        0.2969
     14 O          61.9718   85.9460   12.3623 O.2     1  UNL1       -0.2636
     15 N          63.4874   87.9359   13.0646 N.ar    1  UNL1       -0.2934
     16 N          68.5481   94.7824   16.1211 N.3     1  UNL1       -0.3208
     17 C          67.9308   93.5005   15.6460 C.3     1  UNL1        0.0725
     18 C          68.3159   92.1197   16.0877 C.3     1  UNL1        0.0386
     19 C          67.4432   91.1402   15.3605 C.3     1  UNL1        0.0923
     20 N          66.5188   91.9156   14.4693 N.pl3   1  UNL1       -0.3043
     21 C          66.8201   93.3743   14.6457 C.3     1  UNL1        0.1063
     22 H          69.2807   94.5758   16.8001 H       1  UNL1        0.1189
     23 H          67.8325   95.3626   16.5589 H       1  UNL1        0.1189
     24 C          64.0572   87.1086   14.1787 C.3     1  UNL1        0.0887
     25 C          64.1521   86.7875   15.6408 C.3     1  UNL1        0.0246
     26 C          64.9491   85.9968   14.6460 C.3     1  UNL1        0.0246
@<TRIPOS>BOND
     1    17    16    1
     2    17    18    1
     3    18    19    1
     4    19    20    1
     5    20     1    1
     6     1     2   ar
     7     2     3   ar
     8     3     4   ar
     9     4     5   ar
    10     5     6   ar
    11     6     7    1
    12     4     8   ar
    13     8     9   ar
    14     9    10   ar
    15    10    11   ar
    16    11    12   ar
    17    12    13   ar
    18    13    14    2
    19    13    15   ar
    20    15    24    1
    21    24    25    1
    22    25    26    1
    23    20    21    1
    24    21    17    1
    25     6     1   ar
    26    12     8   ar
    27    26    24    1
    28    15     3   ar
    29    16    22    1
    30    16    23    1
@<TRIPOS>MOLECULE
*****
 26 30 0 0 0
SMALL
GASTEIGER

@<TRIPOS>ATOM
      1 C          63.6481   86.8437   14.2762 C.ar    1  UNL1        0.0772
      2 C          63.3801   86.2997   12.9042 C.ar    1  UNL1        0.0356
      3 C          63.2417   84.8203   12.6978 C.ar    1  UNL1        0.0816
      4 C          63.3714   83.8851   13.8634 C.ar    1  UNL1        0.1027
      5 C          63.6394   84.4292   15.2354 C.ar    1  UNL1        0.0516
      6 C          63.7777   85.9084   15.4417 C.ar    1  UNL1        0.1549
      7 F          64.0457   86.4524   16.8137 F       1  UNL1       -0.2028
      8 N          63.2330   82.4058   13.6570 N.ar    1  UNL1       -0.2050
      9 N          63.3110   81.2482   14.6076 N.ar    1  UNL1       -0.1408
     10 C          63.0912   79.9887   13.8232 C.ar    1  UNL1        0.2214
     11 N          62.8774   80.3679   12.3877 N.ar    1  UNL1       -0.1990
     12 C          62.9650   81.8618   12.2850 C.ar    1  UNL1        0.2225
     13 C          62.8354   82.7971   11.1195 C.ar    1  UNL1        0.2969
     14 O          62.5674   82.2531    9.7476 O.2     1  UNL1       -0.2636
     15 N          62.9737   84.2764   11.3259 N.ar    1  UNL1       -0.2934
     16 N          63.6909   91.6169   16.5335 N.3     1  UNL1       -0.3208
     17 C          63.8061   90.5169   15.5202 C.3     1  UNL1        0.0725
     18 C          64.1927   90.6817   14.0803 C.3     1  UNL1        0.0386
     19 C          64.1805   89.3257   13.4390 C.3     1  UNL1        0.0923
     20 N          63.7865   88.3229   14.4826 N.pl3   1  UNL1       -0.3043
     21 C          63.5551   89.0591   15.7689 C.3     1  UNL1        0.1063
     22 H          63.9174   92.5091   16.0942 H       1  UNL1        0.1189
     23 H          64.3394   91.4414   17.3010 H       1  UNL1        0.1189
     24 C          62.8441   85.2116   10.1603 C.3     1  UNL1        0.0887
     25 C          62.3487   86.5029    9.5797 C.3     1  UNL1        0.0246
     26 C          63.1150   85.5401    8.7220 C.3     1  UNL1        0.0246
@<TRIPOS>BOND
     1    17    16    1
     2    17    18    1
     3    18    19    1
     4    19    20    1
     5    20     1    1
     6     1     2   ar
     7     2     3   ar
     8     3     4   ar
     9     4     5   ar
    10     5     6   ar
    11     6     7    1
    12     4     8   ar
    13     8     9   ar
    14     9    10   ar
    15    10    11   ar
    16    11    12   ar
    17    12    13   ar
    18    13    14    2
    19    13    15   ar
    20    15    24    1
    21    24    25    1
    22    25    26    1
    23    20    21    1
    24    21    17    1
    25     6     1   ar
    26    12     8   ar
    27    26    24    1
    28    15     3   ar
    29    16    22    1
    30    16    23    1
@<TRIPOS>MOLECULE
*****
 26 30 0 0 0
SMALL
GASTEIGER

@<TRIPOS>ATOM
      1 C          60.1706   88.5581    8.0319 C.ar    1  UNL1        0.0772
      2 C          61.0821   89.1431    9.0696 C.ar    1  UNL1        0.0356
      3 C          61.6907   88.2590   10.1175 C.ar    1  UNL1        0.0816
      4 C          61.3878   86.7898   10.1276 C.ar    1  UNL1        0.1027
      5 C          60.4762   86.2049    9.0898 C.ar    1  UNL1        0.0516
      6 C          59.8677   87.0891    8.0420 C.ar    1  UNL1        0.1549
      7 F          58.9561   86.5041    7.0042 F       1  UNL1       -0.2028
      8 N          61.9963   85.9058   11.1754 N.ar    1  UNL1       -0.2050
      9 N          61.8825   84.4329   11.4356 N.ar    1  UNL1       -0.1408
     10 C          62.7236   84.1076   12.6342 C.ar    1  UNL1        0.2214
     11 N          63.3574   85.3794   13.1148 N.ar    1  UNL1       -0.1990
     12 C          62.9079   86.4908   12.2132 C.ar    1  UNL1        0.2225
     13 C          63.2108   87.9598   12.2031 C.ar    1  UNL1        0.2969
     14 O          64.1223   88.5448   13.2409 O.2     1  UNL1       -0.2636
     15 N          62.6022   88.8439   11.1553 N.ar    1  UNL1       -0.2934
     16 N          56.6427   91.0500    4.9946 N.3     1  UNL1       -0.3208
     17 C          57.9404   90.5876    5.5879 C.3     1  UNL1        0.0725
     18 C          59.3106   91.0178    5.1550 C.3     1  UNL1        0.0386
     19 C          60.3129   90.3099    6.0179 C.3     1  UNL1        0.0923
     20 N          59.5620   89.4422    6.9840 N.pl3   1  UNL1       -0.3043
     21 C          58.0958   89.6138    6.7183 C.3     1  UNL1        0.1063
     22 H          56.8299   91.7110    4.2407 H       1  UNL1        0.1189
     23 H          56.0826   91.5056    5.7151 H       1  UNL1        0.1189
     24 C          62.9052   90.3130   11.1452 C.3     1  UNL1        0.0887
     25 C          63.0736   91.6097   11.8801 C.3     1  UNL1        0.0246
     26 C          63.2615   91.5607   10.3927 C.3     1  UNL1        0.0246
@<TRIPOS>BOND
     1    17    16    1
     2    17    18    1
     3    18    19    1
     4    19    20    1
     5    20     1    1
     6     1     2   ar
     7     2     3   ar
     8     3     4   ar
     9     4     5   ar
    10     5     6   ar
    11     6     7    1
    12     4     8   ar
    13     8     9   ar
    14     9    10   ar
    15    10    11   ar
    16    11    12   ar
    17    12    13   ar
    18    13    14    2
    19    13    15   ar
    20    15    24    1
    21    24    25    1
    22    25    26    1
    23    20    21    1
    24    21    17    1
    25     6     1   ar
    26    12     8   ar
    27    26    24    1
    28    15     3   ar
    29    16    22    1
    30    16    23    1
