@<TRIPOS>MOLECULE
*****
 22 24 0 0 0
SMALL
GASTEIGER

@<TRIPOS>ATOM
      1 C          62.1407   90.0374   11.8535 C.3     1  UNL1        0.0541
      2 C          62.0159   88.6622   11.2676 C.ar    1  UNL1        0.0829
      3 N          62.7158   87.4288   11.7563 N.ar    1  UNL1       -0.1694
      4 N          62.3018   86.2834   10.8809 N.ar    1  UNL1       -0.2284
      5 C          61.3460   86.8088    9.8511 C.ar    1  UNL1        0.0862
      6 C          60.6137   86.1384    8.7267 C.ar    1  UNL1        0.0193
      7 C          59.7047   86.9383    7.8413 C.ar    1  UNL1        0.0039
      8 C          59.5281   88.4086    8.0804 C.ar    1  UNL1        0.0298
      9 C          60.2603   89.0789    9.2048 C.ar    1  UNL1        0.1427
     10 F          60.0836   90.5492    9.4438 F       1  UNL1       -0.2041
     11 C          61.1693   88.2791   10.0902 C.ar    1  UNL1        0.0604
     12 C          62.7626   84.8620   11.0121 C.ar    1  UNL1        0.1017
     13 C          63.5491   84.2233    9.9058 C.ar    1  UNL1        0.1179
     14 N          64.0100   82.8019   10.0370 N.ar    1  UNL1       -0.2410
     15 C          63.6844   82.0191   11.2744 C.ar    1  UNL1        0.0969
     16 C          62.8979   82.6577   12.3806 C.ar    1  UNL1        0.0224
     17 C          62.4371   84.0791   12.2494 C.ar    1  UNL1        0.0202
     18 C          62.5723   81.8749   13.6180 C.3     1  UNL1        0.1086
     19 C          62.5235   83.1476   14.4103 C.3     1  UNL1        0.0339
     20 C          62.6210   80.6022   12.8256 C.3     1  UNL1        0.0339
     21 O          62.2467   81.0920   14.8554 O.3     1  UNL1       -0.3826
     22 H          62.1467   81.6993   15.6052 H       1  UNL1        0.2107
@<TRIPOS>BOND
     1     1     2    1
     2     2     3   ar
     3     3     4   ar
     4     4    12    1
     5    12    13   ar
     6    13    14   ar
     7    14    15   ar
     8    15    16   ar
     9    16    18    1
    10    18    19    1
    11    18    20    1
    12    18    21    1
    13    16    17   ar
    14     4     5   ar
    15     5     6   ar
    16     6     7   ar
    17     7     8   ar
    18     8     9   ar
    19     9    10    1
    20     9    11   ar
    21    11     2   ar
    22    17    12   ar
    23    11     5   ar
    24    21    22    1
@<TRIPOS>MOLECULE
*****
 22 24 0 0 0
SMALL
GASTEIGER

@<TRIPOS>ATOM
      1 C          59.2644   87.6533    7.7476 C.3     1  UNL1        0.0541
      2 C          60.3068   87.2748    8.7575 C.ar    1  UNL1        0.0829
      3 N          60.8752   85.9024    8.9660 N.ar    1  UNL1       -0.1694
      4 N          61.8836   85.9817   10.0737 N.ar    1  UNL1       -0.2284
      5 C          61.9384   87.4031   10.5498 C.ar    1  UNL1        0.0862
      6 C          62.7497   88.0730   11.6189 C.ar    1  UNL1        0.0193
      7 C          62.5866   89.5420   11.8745 C.ar    1  UNL1        0.0039
      8 C          61.6121   90.3411   11.0611 C.ar    1  UNL1        0.0298
      9 C          60.8007   89.6713    9.9920 C.ar    1  UNL1        0.1427
     10 F          59.8262   90.4704    9.1786 F       1  UNL1       -0.2041
     11 C          60.9639   88.2023    9.7363 C.ar    1  UNL1        0.0604
     12 C          62.6948   84.8401   10.6110 C.ar    1  UNL1        0.1017
     13 C          63.6259   84.0899    9.7051 C.ar    1  UNL1        0.1179
     14 N          64.4371   82.9483   10.2424 N.ar    1  UNL1       -0.2410
     15 C          64.3172   82.5568   11.6855 C.ar    1  UNL1        0.0969
     16 C          63.3861   83.3070   12.5912 C.ar    1  UNL1        0.0224
     17 C          62.5750   84.4486   12.0539 C.ar    1  UNL1        0.0202
     18 C          63.2663   82.9155   14.0342 C.3     1  UNL1        0.1086
     19 C          64.3084   83.9317   14.3965 C.3     1  UNL1        0.0339
     20 C          62.2241   81.8992   13.6720 C.3     1  UNL1        0.0339
     21 O          63.1464   82.5240   15.4773 O.3     1  UNL1       -0.3826
     22 H          63.7559   83.0591   16.0092 H       1  UNL1        0.2107
@<TRIPOS>BOND
     1     1     2    1
     2     2     3   ar
     3     3     4   ar
     4     4    12    1
     5    12    13   ar
     6    13    14   ar
     7    14    15   ar
     8    15    16   ar
     9    16    18    1
    10    18    19    1
    11    18    20    1
    12    18    21    1
    13    16    17   ar
    14     4     5   ar
    15     5     6   ar
    16     6     7   ar
    17     7     8   ar
    18     8     9   ar
    19     9    10    1
    20     9    11   ar
    21    11     2   ar
    22    17    12   ar
    23    11     5   ar
    24    21    22    1
@<TRIPOS>MOLECULE
*****
 22 24 0 0 0
SMALL
GASTEIGER

@<TRIPOS>ATOM
      1 C          61.9546   87.9063   10.2690 C.3     1  UNL1        0.0541
      2 C          62.6856   88.1265   11.5602 C.ar    1  UNL1        0.0829
      3 N          63.0412   89.4562   12.1564 N.ar    1  UNL1       -0.1694
      4 N          63.7647   89.2071   13.4465 N.ar    1  UNL1       -0.2284
      5 C          63.8563   87.7235   13.6477 C.ar    1  UNL1        0.0862
      6 C          64.4608   86.8944   14.7418 C.ar    1  UNL1        0.0193
      7 C          64.3984   85.3975   14.6701 C.ar    1  UNL1        0.0039
      8 C          63.7315   84.7296   13.5043 C.ar    1  UNL1        0.0298
      9 C          63.1270   85.5587   12.4102 C.ar    1  UNL1        0.1427
     10 F          62.4600   84.8908   11.2444 F       1  UNL1       -0.2041
     11 C          63.1894   87.0556   12.4819 C.ar    1  UNL1        0.0604
     12 C          64.3023   90.2573   14.3729 C.ar    1  UNL1        0.1017
     13 C          63.4696   90.7399   15.5235 C.ar    1  UNL1        0.1179
     14 N          64.0072   91.7901   16.4499 N.ar    1  UNL1       -0.2410
     15 C          65.3774   92.3577   16.2257 C.ar    1  UNL1        0.0969
     16 C          66.2100   91.8751   15.0751 C.ar    1  UNL1        0.0224
     17 C          65.6724   90.8249   14.1487 C.ar    1  UNL1        0.0202
     18 C          67.5803   92.4427   14.8509 C.3     1  UNL1        0.1086
     19 C          67.5500   91.9556   13.4325 C.3     1  UNL1        0.0339
     20 C          67.6105   92.9298   16.2693 C.3     1  UNL1        0.0339
     21 O          68.9505   93.0103   14.6267 O.3     1  UNL1       -0.3826
     22 H          69.2274   92.8357   13.7136 H       1  UNL1        0.2107
@<TRIPOS>BOND
     1     1     2    1
     2     2     3   ar
     3     3     4   ar
     4     4    12    1
     5    12    13   ar
     6    13    14   ar
     7    14    15   ar
     8    15    16   ar
     9    16    18    1
    10    18    19    1
    11    18    20    1
    12    18    21    1
    13    16    17   ar
    14     4     5   ar
    15     5     6   ar
    16     6     7   ar
    17     7     8   ar
    18     8     9   ar
    19     9    10    1
    20     9    11   ar
    21    11     2   ar
    22    17    12   ar
    23    11     5   ar
    24    21    22    1
@<TRIPOS>MOLECULE
*****
 22 24 0 0 0
SMALL
GASTEIGER

@<TRIPOS>ATOM
      1 C          60.0106   89.1483    8.5160 C.3     1  UNL1        0.0541
      2 C          60.9944   89.0261    9.6417 C.ar    1  UNL1        0.0829
      3 N          61.6888   90.1618   10.3330 N.ar    1  UNL1       -0.1694
      4 N          62.5801   89.5843   11.3923 N.ar    1  UNL1       -0.2284
      5 C          62.4365   88.0916   11.3557 C.ar    1  UNL1        0.0862
      6 C          63.0716   87.0020   12.1677 C.ar    1  UNL1        0.0193
      7 C          62.7266   85.5674   11.8978 C.ar    1  UNL1        0.0039
      8 C          61.7466   85.2224   10.8158 C.ar    1  UNL1        0.0298
      9 C          61.1116   86.3120   10.0038 C.ar    1  UNL1        0.1427
     10 F          60.1316   85.9670    8.9219 F       1  UNL1       -0.2041
     11 C          61.4565   87.7466   10.2737 C.ar    1  UNL1        0.0604
     12 C          63.4603   90.3627   12.3246 C.ar    1  UNL1        0.1017
     13 C          63.4922   90.0226   13.7853 C.ar    1  UNL1        0.1179
     14 N          64.3725   90.8011   14.7175 N.ar    1  UNL1       -0.2410
     15 C          65.2209   91.9196   14.1893 C.ar    1  UNL1        0.0969
     16 C          65.1890   92.2597   12.7287 C.ar    1  UNL1        0.0224
     17 C          64.3087   91.4812   11.7964 C.ar    1  UNL1        0.0202
     18 C          66.0374   93.3782   12.2004 C.3     1  UNL1        0.1086
     19 C          66.5086   93.6782   13.5925 C.3     1  UNL1        0.0339
     20 C          65.5662   93.0781   10.8083 C.3     1  UNL1        0.0339
     21 O          66.8858   94.4967   11.6721 O.3     1  UNL1       -0.3826
     22 H          67.3560   94.9207   12.4069 H       1  UNL1        0.2107
@<TRIPOS>BOND
     1     1     2    1
     2     2     3   ar
     3     3     4   ar
     4     4    12    1
     5    12    13   ar
     6    13    14   ar
     7    14    15   ar
     8    15    16   ar
     9    16    18    1
    10    18    19    1
    11    18    20    1
    12    18    21    1
    13    16    17   ar
    14     4     5   ar
    15     5     6   ar
    16     6     7   ar
    17     7     8   ar
    18     8     9   ar
    19     9    10    1
    20     9    11   ar
    21    11     2   ar
    22    17    12   ar
    23    11     5   ar
    24    21    22    1
@<TRIPOS>MOLECULE
*****
 22 24 0 0 0
SMALL
GASTEIGER

@<TRIPOS>ATOM
      1 C          61.7342   89.1441    9.7901 C.3     1  UNL1        0.0541
      2 C          62.3415   88.3913   10.9366 C.ar    1  UNL1        0.0829
      3 N          62.3049   86.9048   11.1335 N.ar    1  UNL1       -0.1694
      4 N          63.0329   86.5877   12.4061 N.ar    1  UNL1       -0.2284
      5 C          63.5195   87.8783   12.9957 C.ar    1  UNL1        0.0862
      6 C          64.2964   88.1824   14.2422 C.ar    1  UNL1        0.0193
      7 C          64.6461   89.6013   14.5805 C.ar    1  UNL1        0.0039
      8 C          64.2188   90.7160   13.6723 C.ar    1  UNL1        0.0298
      9 C          63.4419   90.4119   12.4258 C.ar    1  UNL1        0.1427
     10 F          63.0146   91.5266   11.5176 F       1  UNL1       -0.2041
     11 C          63.0922   88.9930   12.0875 C.ar    1  UNL1        0.0604
     12 C          63.2382   85.2201   12.9871 C.ar    1  UNL1        0.1017
     13 C          63.6366   85.0683   14.4253 C.ar    1  UNL1        0.1179
     14 N          63.8420   83.7007   15.0063 N.ar    1  UNL1       -0.2410
     15 C          63.6490   82.4850   14.1492 C.ar    1  UNL1        0.0969
     16 C          63.2506   82.6368   12.7110 C.ar    1  UNL1        0.0224
     17 C          63.0453   84.0044   12.1300 C.ar    1  UNL1        0.0202
     18 C          63.0577   81.4210   11.8539 C.3     1  UNL1        0.1086
     19 C          63.6984   82.1331   10.6996 C.3     1  UNL1        0.0339
     20 C          62.4169   80.7090   13.0082 C.3     1  UNL1        0.0339
     21 O          62.8647   80.2053   10.9968 O.3     1  UNL1       -0.3826
     22 H          63.2137   80.3774   10.1083 H       1  UNL1        0.2107
@<TRIPOS>BOND
     1     1     2    1
     2     2     3   ar
     3     3     4   ar
     4     4    12    1
     5    12    13   ar
     6    13    14   ar
     7    14    15   ar
     8    15    16   ar
     9    16    18    1
    10    18    19    1
    11    18    20    1
    12    18    21    1
    13    16    17   ar
    14     4     5   ar
    15     5     6   ar
    16     6     7   ar
    17     7     8   ar
    18     8     9   ar
    19     9    10    1
    20     9    11   ar
    21    11     2   ar
    22    17    12   ar
    23    11     5   ar
    24    21    22    1
@<TRIPOS>MOLECULE
*****
 22 24 0 0 0
SMALL
GASTEIGER

@<TRIPOS>ATOM
      1 C          60.1082   87.2984    8.2436 C.3     1  UNL1        0.0541
      2 C          60.9680   87.0811    9.4533 C.ar    1  UNL1        0.0829
      3 N          61.2935   85.7565   10.0773 N.ar    1  UNL1       -0.1694
      4 N          62.1799   86.0072   11.2611 N.ar    1  UNL1       -0.2284
      5 C          62.4023   87.4867   11.3687 C.ar    1  UNL1        0.0862
      6 C          63.1901   88.3152   12.3397 C.ar    1  UNL1        0.0193
      7 C          63.2288   89.8075   12.1934 C.ar    1  UNL1        0.0039
      8 C          62.4798   90.4713   11.0761 C.ar    1  UNL1        0.0298
      9 C          61.6920   89.6428   10.1051 C.ar    1  UNL1        0.1427
     10 F          60.9430   90.3065    8.9878 F       1  UNL1       -0.2041
     11 C          61.6533   88.1504   10.2514 C.ar    1  UNL1        0.0604
     12 C          62.7449   84.9618   12.1766 C.ar    1  UNL1        0.1017
     13 C          63.5492   85.3700   13.3752 C.ar    1  UNL1        0.1179
     14 N          64.1142   84.3246   14.2907 N.ar    1  UNL1       -0.2410
     15 C          63.8748   82.8712   14.0077 C.ar    1  UNL1        0.0969
     16 C          63.0705   82.4631   12.8091 C.ar    1  UNL1        0.0224
     17 C          62.5055   83.5084   11.8937 C.ar    1  UNL1        0.0202
     18 C          62.8311   81.0096   12.5261 C.3     1  UNL1        0.1086
     19 C          63.3349   81.1993   11.1260 C.3     1  UNL1        0.0339
     20 C          62.3273   80.8199   13.9262 C.3     1  UNL1        0.0339
     21 O          62.5917   79.5561   12.2431 O.3     1  UNL1       -0.3826
     22 H          62.8473   79.3585   11.3285 H       1  UNL1        0.2107
@<TRIPOS>BOND
     1     1     2    1
     2     2     3   ar
     3     3     4   ar
     4     4    12    1
     5    12    13   ar
     6    13    14   ar
     7    14    15   ar
     8    15    16   ar
     9    16    18    1
    10    18    19    1
    11    18    20    1
    12    18    21    1
    13    16    17   ar
    14     4     5   ar
    15     5     6   ar
    16     6     7   ar
    17     7     8   ar
    18     8     9   ar
    19     9    10    1
    20     9    11   ar
    21    11     2   ar
    22    17    12   ar
    23    11     5   ar
    24    21    22    1
@<TRIPOS>MOLECULE
*****
 22 24 0 0 0
SMALL
GASTEIGER

@<TRIPOS>ATOM
      1 C          61.3809   89.6496    9.7679 C.3     1  UNL1        0.0541
      2 C          61.9960   88.5325   10.5577 C.ar    1  UNL1        0.0829
      3 N          61.9796   87.0787   10.1887 N.ar    1  UNL1       -0.1694
      4 N          62.7089   86.3209   11.2582 N.ar    1  UNL1       -0.2284
      5 C          63.1761   87.3063   12.2881 C.ar    1  UNL1        0.0862
      6 C          63.9458   87.1356   13.5642 C.ar    1  UNL1        0.0193
      7 C          64.2748   88.3317   14.4073 C.ar    1  UNL1        0.0039
      8 C          63.8341   89.6986   13.9744 C.ar    1  UNL1        0.0298
      9 C          63.0645   89.8694   12.6983 C.ar    1  UNL1        0.1427
     10 F          62.6238   91.2363   12.2654 F       1  UNL1       -0.2041
     11 C          62.7355   88.6732   11.8552 C.ar    1  UNL1        0.0604
     12 C          62.9320   84.8379   11.2919 C.ar    1  UNL1        0.1017
     13 C          63.5392   84.1438   10.1088 C.ar    1  UNL1        0.1179
     14 N          63.7623   82.6608   10.1424 N.ar    1  UNL1       -0.2410
     15 C          63.3782   81.8720   11.3591 C.ar    1  UNL1        0.0969
     16 C          62.7710   82.5662   12.5421 C.ar    1  UNL1        0.0224
     17 C          62.5480   84.0491   12.5084 C.ar    1  UNL1        0.0202
     18 C          62.3869   81.7774   13.7588 C.3     1  UNL1        0.1086
     19 C          62.4225   80.5140   12.9509 C.3     1  UNL1        0.0339
     20 C          62.3514   83.0408   14.5666 C.3     1  UNL1        0.0339
     21 O          62.0028   80.9886   14.9754 O.3     1  UNL1       -0.3826
     22 H          61.9417   80.0483   14.7451 H       1  UNL1        0.2107
@<TRIPOS>BOND
     1     1     2    1
     2     2     3   ar
     3     3     4   ar
     4     4    12    1
     5    12    13   ar
     6    13    14   ar
     7    14    15   ar
     8    15    16   ar
     9    16    18    1
    10    18    19    1
    11    18    20    1
    12    18    21    1
    13    16    17   ar
    14     4     5   ar
    15     5     6   ar
    16     6     7   ar
    17     7     8   ar
    18     8     9   ar
    19     9    10    1
    20     9    11   ar
    21    11     2   ar
    22    17    12   ar
    23    11     5   ar
    24    21    22    1
@<TRIPOS>MOLECULE
*****
 22 24 0 0 0
SMALL
GASTEIGER

@<TRIPOS>ATOM
      1 C          63.8557   82.1401   10.2519 C.3     1  UNL1        0.0541
      2 C          63.4825   83.3658   11.0319 C.ar    1  UNL1        0.0829
      3 N          62.9750   84.6554   10.4580 N.ar    1  UNL1       -0.1694
      4 N          62.7301   85.6037   11.5942 N.ar    1  UNL1       -0.2284
      5 C          63.0863   84.9001   12.8702 C.ar    1  UNL1        0.0862
      6 C          63.0473   85.3402   14.3036 C.ar    1  UNL1        0.0193
      7 C          63.4733   84.3972   15.3895 C.ar    1  UNL1        0.0039
      8 C          63.9383   83.0141   15.0420 C.ar    1  UNL1        0.0298
      9 C          63.9773   82.5740   13.6085 C.ar    1  UNL1        0.1427
     10 F          64.4423   81.1909   13.2610 F       1  UNL1       -0.2041
     11 C          63.5513   83.5170   12.5226 C.ar    1  UNL1        0.0604
     12 C          62.2188   87.0088   11.4753 C.ar    1  UNL1        0.1017
     13 C          60.8681   87.2673   10.8762 C.ar    1  UNL1        0.1179
     14 N          60.3568   88.6724   10.7573 N.ar    1  UNL1       -0.2410
     15 C          61.1962   89.8191   11.2374 C.ar    1  UNL1        0.0969
     16 C          62.5469   89.5607   11.8364 C.ar    1  UNL1        0.0224
     17 C          63.0582   88.1555   11.9553 C.ar    1  UNL1        0.0202
     18 C          63.3863   90.7073   12.3165 C.3     1  UNL1        0.1086
     19 C          63.3117   90.1756   13.7171 C.3     1  UNL1        0.0339
     20 C          63.4609   91.2391   10.9159 C.3     1  UNL1        0.0339
     21 O          64.2257   91.8540   12.7965 O.3     1  UNL1       -0.3826
     22 H          64.3611   91.7770   13.7540 H       1  UNL1        0.2107
@<TRIPOS>BOND
     1     1     2    1
     2     2     3   ar
     3     3     4   ar
     4     4    12    1
     5    12    13   ar
     6    13    14   ar
     7    14    15   ar
     8    15    16   ar
     9    16    18    1
    10    18    19    1
    11    18    20    1
    12    18    21    1
    13    16    17   ar
    14     4     5   ar
    15     5     6   ar
    16     6     7   ar
    17     7     8   ar
    18     8     9   ar
    19     9    10    1
    20     9    11   ar
    21    11     2   ar
    22    17    12   ar
    23    11     5   ar
    24    21    22    1
@<TRIPOS>MOLECULE
*****
 22 24 0 0 0
SMALL
GASTEIGER

@<TRIPOS>ATOM
      1 C          63.4966   81.1343   10.5882 C.3     1  UNL1        0.0541
      2 C          63.2168   82.5195   11.0911 C.ar    1  UNL1        0.0829
      3 N          62.7476   83.6797   10.2642 N.ar    1  UNL1       -0.1694
      4 N          62.5979   84.8649   11.1713 N.ar    1  UNL1       -0.2284
      5 C          62.9745   84.4373   12.5588 C.ar    1  UNL1        0.0862
      6 C          63.0186   85.1805   13.8610 C.ar    1  UNL1        0.0193
      7 C          63.4452   84.4741   15.1136 C.ar    1  UNL1        0.0039
      8 C          63.8276   83.0246   15.0640 C.ar    1  UNL1        0.0298
      9 C          63.7836   82.2813   13.7619 C.ar    1  UNL1        0.1427
     10 F          64.1661   80.8318   13.7124 F       1  UNL1       -0.2041
     11 C          63.3570   82.9877   12.5093 C.ar    1  UNL1        0.0604
     12 C          62.1502   86.2370   10.7626 C.ar    1  UNL1        0.1017
     13 C          62.6705   87.4427   11.4877 C.ar    1  UNL1        0.1179
     14 N          62.2228   88.8148   11.0790 N.ar    1  UNL1       -0.2410
     15 C          61.2548   88.9812    9.9453 C.ar    1  UNL1        0.0969
     16 C          60.7345   87.7755    9.2203 C.ar    1  UNL1        0.0224
     17 C          61.1822   86.4035    9.6290 C.ar    1  UNL1        0.0202
     18 C          59.7665   87.9419    8.0866 C.3     1  UNL1        0.1086
     19 C          59.6822   86.4515    7.9398 C.3     1  UNL1        0.0339
     20 C          59.8508   89.4323    8.2334 C.3     1  UNL1        0.0339
     21 O          58.7985   88.1083    6.9529 O.3     1  UNL1       -0.3826
     22 H          58.5385   87.2355    6.6191 H       1  UNL1        0.2107
@<TRIPOS>BOND
     1     1     2    1
     2     2     3   ar
     3     3     4   ar
     4     4    12    1
     5    12    13   ar
     6    13    14   ar
     7    14    15   ar
     8    15    16   ar
     9    16    18    1
    10    18    19    1
    11    18    20    1
    12    18    21    1
    13    16    17   ar
    14     4     5   ar
    15     5     6   ar
    16     6     7   ar
    17     7     8   ar
    18     8     9   ar
    19     9    10    1
    20     9    11   ar
    21    11     2   ar
    22    17    12   ar
    23    11     5   ar
    24    21    22    1
