@<TRIPOS>MOLECULE
*****
 33 38 0 0 0
SMALL
GASTEIGER

@<TRIPOS>ATOM
      1 O          59.1762   86.9730    7.5765 O.2     1  UNL1       -0.2698
      2 C          60.0321   88.2036    7.5213 C.2     1  UNL1        0.2495
      3 N          61.2544   88.3063    8.3846 N.am    1  UNL1       -0.2804
      4 H          61.8162   89.1140    8.3484 H       1  UNL1        0.1552
      5 C          61.6207   87.1785    9.3032 C.ar    1  UNL1        0.0505
      6 C          61.1772   87.2039   10.7360 C.ar    1  UNL1        0.0144
      7 C          61.5435   86.0761   11.6545 C.ar    1  UNL1       -0.0030
      8 C          62.3533   84.9229   11.1405 C.ar    1  UNL1       -0.0227
      9 C          62.7968   84.8975    9.7078 C.ar    1  UNL1       -0.0030
     10 C          62.4306   86.0253    8.7891 C.ar    1  UNL1        0.0144
     11 C          62.7196   83.7950   12.0591 C.3     1  UNL1        0.0189
     12 C          63.4018   84.0818   13.3638 C.3     1  UNL1        0.0040
     13 C          63.7681   82.9540   14.2824 C.3     1  UNL1        0.0003
     14 C          63.4521   81.5394   13.8963 C.3     1  UNL1        0.0000
     15 C          62.7699   81.2526   12.5916 C.3     1  UNL1        0.0003
     16 C          63.1415   84.5142   12.7737 C.3     1  UNL1        0.0000
     17 C          63.7178   85.4964   13.7499 C.3     1  UNL1        0.0003
     18 C          64.0840   84.3686   14.6685 C.3     1  UNL1        0.0000
     19 C          63.0356   85.2096   12.4452 C.3     1  UNL1        0.0040
     20 C          62.4036   82.3804   11.6730 C.3     1  UNL1        0.0040
     21 C          59.6658   89.3314    6.6026 C.ar    1  UNL1        0.0537
     22 C          60.7354   90.0539    5.8384 C.ar    1  UNL1        0.0042
     23 C          60.3690   91.1817    4.9198 C.ar    1  UNL1       -0.0028
     24 C          58.9330   91.5870    4.7654 C.ar    1  UNL1       -0.0061
     25 C          57.8635   90.8645    5.5296 C.ar    1  UNL1       -0.0028
     26 C          58.2299   89.7367    6.4482 C.ar    1  UNL1        0.0042
     27 C          58.5667   92.7148    3.8468 C.3     1  UNL1        0.0993
     28 N          59.4401   93.0384    2.6711 N.3     1  UNL1       -0.2646
     29 C          60.4945   94.0987    2.7893 C.3     1  UNL1        0.1049
     30 C          61.3680   94.4222    1.6135 C.3     1  UNL1        0.1595
     31 O          61.1870   93.6855    0.3195 O.3     1  UNL1       -0.3508
     32 C          60.1326   92.6252    0.2013 C.3     1  UNL1        0.1595
     33 C          59.2592   92.3016    1.3770 C.3     1  UNL1        0.1049
@<TRIPOS>BOND
     1     1     2    2
     2     2     3   am
     3     3     5    1
     4     5     6   ar
     5     6     7   ar
     6     7     8   ar
     7     8    11    1
     8    11    12    1
     9    12    13    1
    10    13    14    1
    11    14    15    1
    12    15    16    1
    13    16    17    1
    14    17    18    1
    15    17    19    1
    16    15    20    1
    17     8     9   ar
    18     9    10   ar
    19     2    21    1
    20    21    22   ar
    21    22    23   ar
    22    23    24   ar
    23    24    27    1
    24    27    28    1
    25    28    29    1
    26    29    30    1
    27    30    31    1
    28    31    32    1
    29    32    33    1
    30    24    25   ar
    31    25    26   ar
    32    10     5   ar
    33    26    21   ar
    34    19    11    1
    35    33    28    1
    36    20    11    1
    37    18    13    1
    38     3     4    1
@<TRIPOS>MOLECULE
*****
 33 38 0 0 0
SMALL
GASTEIGER

@<TRIPOS>ATOM
      1 O          59.0957   87.2246    7.5655 O.2     1  UNL1       -0.2698
      2 C          59.9481   88.4551    7.4696 C.2     1  UNL1        0.2495
      3 N          61.1528   88.6034    8.3509 N.am    1  UNL1       -0.2804
      4 H          61.7123   89.4110    8.2880 H       1  UNL1        0.1552
      5 C          61.5050   87.5212    9.3281 C.ar    1  UNL1        0.0505
      6 C          61.0471   87.6194   10.7531 C.ar    1  UNL1        0.0144
      7 C          61.3993   86.5372   11.7303 C.ar    1  UNL1       -0.0030
      8 C          62.2094   85.3569   11.2824 C.ar    1  UNL1       -0.0227
      9 C          62.6673   85.2587    9.8574 C.ar    1  UNL1       -0.0030
     10 C          62.3151   86.3409    8.8802 C.ar    1  UNL1        0.0144
     11 C          62.5616   84.2747   12.2596 C.3     1  UNL1        0.0189
     12 C          63.3740   83.0957   11.8125 C.3     1  UNL1        0.0040
     13 C          63.7261   82.0136   12.7897 C.3     1  UNL1        0.0003
     14 C          63.2659   82.1104   14.2140 C.3     1  UNL1        0.0000
     15 C          62.4535   83.2894   14.6612 C.3     1  UNL1        0.0003
     16 C          63.0994   83.7355   11.4686 C.3     1  UNL1        0.0000
     17 C          63.8342   82.9988   10.3881 C.3     1  UNL1        0.0003
     18 C          64.1863   81.9167   11.3653 C.3     1  UNL1        0.0000
     19 C          63.0218   84.1778   10.8353 C.3     1  UNL1        0.0040
     20 C          62.1013   84.3715   13.6840 C.3     1  UNL1        0.0040
     21 C          59.5959   89.5373    6.4924 C.ar    1  UNL1        0.0537
     22 C          58.1600   89.9116    6.2733 C.ar    1  UNL1        0.0042
     23 C          57.8078   90.9937    5.2961 C.ar    1  UNL1       -0.0028
     24 C          58.8915   91.7016    4.5381 C.ar    1  UNL1       -0.0061
     25 C          60.3274   91.3272    4.7573 C.ar    1  UNL1       -0.0028
     26 C          60.6796   90.2451    5.7344 C.ar    1  UNL1        0.0042
     27 C          58.5393   92.7838    3.5609 C.3     1  UNL1        0.0993
     28 N          59.4755   93.1124    2.4361 N.3     1  UNL1       -0.2646
     29 C          59.3266   92.4250    1.1112 C.3     1  UNL1        0.1049
     30 C          60.2630   92.7536   -0.0137 C.3     1  UNL1        0.1595
     31 O          61.3482   93.7696    0.1863 O.3     1  UNL1       -0.3508
     32 C          61.4971   94.4570    1.5112 C.3     1  UNL1        0.1595
     33 C          60.5608   94.1284    2.6360 C.3     1  UNL1        0.1049
@<TRIPOS>BOND
     1     1     2    2
     2     2     3   am
     3     3     5    1
     4     5     6   ar
     5     6     7   ar
     6     7     8   ar
     7     8    11    1
     8    11    12    1
     9    12    13    1
    10    13    14    1
    11    14    15    1
    12    15    16    1
    13    16    17    1
    14    17    18    1
    15    17    19    1
    16    15    20    1
    17     8     9   ar
    18     9    10   ar
    19     2    21    1
    20    21    22   ar
    21    22    23   ar
    22    23    24   ar
    23    24    27    1
    24    27    28    1
    25    28    29    1
    26    29    30    1
    27    30    31    1
    28    31    32    1
    29    32    33    1
    30    24    25   ar
    31    25    26   ar
    32    10     5   ar
    33    26    21   ar
    34    19    11    1
    35    33    28    1
    36    20    11    1
    37    18    13    1
    38     3     4    1
@<TRIPOS>MOLECULE
*****
 33 38 0 0 0
SMALL
GASTEIGER

@<TRIPOS>ATOM
      1 O          71.5795   77.1158   13.9569 O.2     1  UNL1       -0.2698
      2 C          72.2303   76.8864   12.6250 C.2     1  UNL1        0.2495
      3 N          72.6412   75.5020   12.2195 N.am    1  UNL1       -0.2804
      4 H          73.0683   75.3515   11.3454 H       1  UNL1        0.1552
      5 C          72.4012   74.3469   13.1458 C.ar    1  UNL1        0.0505
      6 C          71.4113   73.2821   12.7762 C.ar    1  UNL1        0.0144
      7 C          71.1714   72.1271   13.7025 C.ar    1  UNL1       -0.0030
      8 C          71.9212   72.0367   14.9985 C.ar    1  UNL1       -0.0227
      9 C          72.9110   73.1013   15.3682 C.ar    1  UNL1       -0.0030
     10 C          73.1510   74.2565   14.4418 C.ar    1  UNL1        0.0144
     11 C          71.6811   70.8815   15.9249 C.3     1  UNL1        0.0189
     12 C          71.0645   71.1160   17.2720 C.3     1  UNL1        0.0040
     13 C          70.8245   69.9608   18.1982 C.3     1  UNL1        0.0003
     14 C          71.2012   68.5712   17.7774 C.3     1  UNL1        0.0000
     15 C          71.8178   68.3367   16.4303 C.3     1  UNL1        0.0003
     16 C          71.2614   71.5680   16.6721 C.3     1  UNL1        0.0000
     17 C          70.6879   72.5056   17.6928 C.3     1  UNL1        0.0003
     18 C          70.4479   71.3504   18.6191 C.3     1  UNL1        0.0000
     19 C          71.3045   72.2711   16.3457 C.3     1  UNL1        0.0040
     20 C          72.0578   69.4919   15.5040 C.3     1  UNL1        0.0040
     21 C          72.4703   78.0416   11.6987 C.ar    1  UNL1        0.0537
     22 C          73.3005   77.8528   10.4638 C.ar    1  UNL1        0.0042
     23 C          73.5405   79.0079    9.5376 C.ar    1  UNL1       -0.0028
     24 C          72.9502   80.3519    9.8462 C.ar    1  UNL1       -0.0061
     25 C          72.1199   80.5408   11.0810 C.ar    1  UNL1       -0.0028
     26 C          71.8800   79.3856   12.0073 C.ar    1  UNL1        0.0042
     27 C          73.1901   81.5071    8.9198 C.3     1  UNL1        0.0993
     28 N          72.7415   81.4282    7.4907 N.3     1  UNL1       -0.2646
     29 C          73.6311   81.9384    6.3960 C.3     1  UNL1        0.1049
     30 C          73.1823   81.8595    4.9669 C.3     1  UNL1        0.1595
     31 O          71.8441   81.2703    4.6324 O.3     1  UNL1       -0.3508
     32 C          70.9545   80.7601    5.7271 C.3     1  UNL1        0.1595
     33 C          71.4031   80.8390    7.1562 C.3     1  UNL1        0.1049
@<TRIPOS>BOND
     1     1     2    2
     2     2     3   am
     3     3     5    1
     4     5     6   ar
     5     6     7   ar
     6     7     8   ar
     7     8    11    1
     8    11    12    1
     9    12    13    1
    10    13    14    1
    11    14    15    1
    12    15    16    1
    13    16    17    1
    14    17    18    1
    15    17    19    1
    16    15    20    1
    17     8     9   ar
    18     9    10   ar
    19     2    21    1
    20    21    22   ar
    21    22    23   ar
    22    23    24   ar
    23    24    27    1
    24    27    28    1
    25    28    29    1
    26    29    30    1
    27    30    31    1
    28    31    32    1
    29    32    33    1
    30    24    25   ar
    31    25    26   ar
    32    10     5   ar
    33    26    21   ar
    34    19    11    1
    35    33    28    1
    36    20    11    1
    37    18    13    1
    38     3     4    1
@<TRIPOS>MOLECULE
*****
 33 38 0 0 0
SMALL
GASTEIGER

@<TRIPOS>ATOM
      1 O          61.1957   92.7490    2.6978 O.2     1  UNL1       -0.2698
      2 C          59.7678   92.9275    2.2743 C.2     1  UNL1        0.2495
      3 N          58.6617   92.3402    3.0998 N.am    1  UNL1       -0.2804
      4 H          57.7245   92.4573    2.8219 H       1  UNL1        0.1552
      5 C          58.9834   91.5745    4.3488 C.ar    1  UNL1        0.0505
      6 C          60.4131   91.3316    4.7324 C.ar    1  UNL1        0.0144
      7 C          60.7348   90.5659    5.9814 C.ar    1  UNL1       -0.0030
      8 C          59.6269   90.0430    6.8469 C.ar    1  UNL1       -0.0227
      9 C          58.1973   90.2858    6.4634 C.ar    1  UNL1       -0.0030
     10 C          57.8755   91.0515    5.2144 C.ar    1  UNL1        0.0144
     11 C          59.9487   89.2772    8.0960 C.3     1  UNL1        0.0189
     12 C          59.7733   87.7879    8.1288 C.3     1  UNL1        0.0040
     13 C          60.0951   87.0222    9.3779 C.3     1  UNL1        0.0003
     14 C          60.5923   87.7458   10.5941 C.3     1  UNL1        0.0000
     15 C          60.7677   89.2351   10.5612 C.3     1  UNL1        0.0003
     16 C          59.6644   88.3419    7.5958 C.3     1  UNL1        0.0000
     17 C          59.2761   87.0642    6.9126 C.3     1  UNL1        0.0003
     18 C          59.5979   86.2986    8.1617 C.3     1  UNL1        0.0000
     19 C          59.4515   88.5536    6.8798 C.3     1  UNL1        0.0040
     20 C          60.4459   90.0008    9.3122 C.3     1  UNL1        0.0040
     21 C          59.4461   93.6932    1.0252 C.ar    1  UNL1        0.0537
     22 C          59.8022   95.1468    0.9240 C.ar    1  UNL1        0.0042
     23 C          59.4804   95.9125   -0.3251 C.ar    1  UNL1       -0.0028
     24 C          58.8027   95.2246   -1.4729 C.ar    1  UNL1       -0.0061
     25 C          58.4466   93.7711   -1.3716 C.ar    1  UNL1       -0.0028
     26 C          58.7683   93.0054   -0.1226 C.ar    1  UNL1        0.0042
     27 C          58.4810   95.9904   -2.7220 C.3     1  UNL1        0.0993
     28 N          57.1265   95.8608   -3.3533 N.3     1  UNL1       -0.2646
     29 C          56.9455   95.0038   -4.5710 C.3     1  UNL1        0.1049
     30 C          55.5910   94.8742   -5.2023 C.3     1  UNL1        0.1595
     31 O          54.4175   95.6015   -4.6160 O.3     1  UNL1       -0.3508
     32 C          54.5985   96.4585   -3.3983 C.3     1  UNL1        0.1595
     33 C          55.9530   96.5882   -2.7669 C.3     1  UNL1        0.1049
@<TRIPOS>BOND
     1     1     2    2
     2     2     3   am
     3     3     5    1
     4     5     6   ar
     5     6     7   ar
     6     7     8   ar
     7     8    11    1
     8    11    12    1
     9    12    13    1
    10    13    14    1
    11    14    15    1
    12    15    16    1
    13    16    17    1
    14    17    18    1
    15    17    19    1
    16    15    20    1
    17     8     9   ar
    18     9    10   ar
    19     2    21    1
    20    21    22   ar
    21    22    23   ar
    22    23    24   ar
    23    24    27    1
    24    27    28    1
    25    28    29    1
    26    29    30    1
    27    30    31    1
    28    31    32    1
    29    32    33    1
    30    24    25   ar
    31    25    26   ar
    32    10     5   ar
    33    26    21   ar
    34    19    11    1
    35    33    28    1
    36    20    11    1
    37    18    13    1
    38     3     4    1
@<TRIPOS>MOLECULE
*****
 33 38 0 0 0
SMALL
GASTEIGER

@<TRIPOS>ATOM
      1 O          61.3459   92.7216    2.7781 O.2     1  UNL1       -0.2698
      2 C          59.9348   92.9115    2.3062 C.2     1  UNL1        0.2495
      3 N          58.7966   92.3320    3.0926 N.am    1  UNL1       -0.2804
      4 H          57.8704   92.4566    2.7829 H       1  UNL1        0.1552
      5 C          59.0695   91.5624    4.3509 C.ar    1  UNL1        0.0505
      6 C          57.9296   91.0986    5.2085 C.ar    1  UNL1        0.0144
      7 C          58.2025   90.3291    6.4668 C.ar    1  UNL1       -0.0030
      8 C          59.6152   90.0233    6.8675 C.ar    1  UNL1       -0.0227
      9 C          60.7551   90.4870    6.0099 C.ar    1  UNL1       -0.0030
     10 C          60.4823   91.2566    4.7515 C.ar    1  UNL1        0.0144
     11 C          59.8881   89.2537    8.1258 C.3     1  UNL1        0.0189
     12 C          59.7604   87.7592    8.1335 C.3     1  UNL1        0.0040
     13 C          60.0333   86.9897    9.3918 C.3     1  UNL1        0.0003
     14 C          60.4338   87.7147   10.6424 C.3     1  UNL1        0.0000
     15 C          60.5614   89.2092   10.6347 C.3     1  UNL1        0.0003
     16 C          59.6649   88.3156    7.6005 C.3     1  UNL1        0.0000
     17 C          59.3599   87.0342    6.8829 C.3     1  UNL1        0.0003
     18 C          59.6328   86.2647    8.1412 C.3     1  UNL1        0.0000
     19 C          59.4876   88.5287    6.8752 C.3     1  UNL1        0.0040
     20 C          60.2886   89.9787    9.3764 C.3     1  UNL1        0.0040
     21 C          59.6620   93.6811    1.0479 C.ar    1  UNL1        0.0537
     22 C          59.6842   95.1808    1.0662 C.ar    1  UNL1        0.0042
     23 C          59.4113   95.9503   -0.1921 C.ar    1  UNL1       -0.0028
     24 C          59.1163   95.2202   -1.4687 C.ar    1  UNL1       -0.0061
     25 C          59.0941   93.7205   -1.4871 C.ar    1  UNL1       -0.0028
     26 C          59.3669   92.9510   -0.2288 C.ar    1  UNL1        0.0042
     27 C          58.8434   95.9898   -2.7271 C.3     1  UNL1        0.0993
     28 N          59.2364   95.4171   -4.0566 N.3     1  UNL1       -0.2646
     29 C          58.1891   94.8477   -4.9670 C.3     1  UNL1        0.1049
     30 C          58.5821   94.2750   -6.2966 C.3     1  UNL1        0.1595
     31 O          60.0223   94.2717   -6.7156 O.3     1  UNL1       -0.3508
     32 C          61.0696   94.8412   -5.8052 C.3     1  UNL1        0.1595
     33 C          60.6767   95.4138   -4.4757 C.3     1  UNL1        0.1049
@<TRIPOS>BOND
     1     1     2    2
     2     2     3   am
     3     3     5    1
     4     5     6   ar
     5     6     7   ar
     6     7     8   ar
     7     8    11    1
     8    11    12    1
     9    12    13    1
    10    13    14    1
    11    14    15    1
    12    15    16    1
    13    16    17    1
    14    17    18    1
    15    17    19    1
    16    15    20    1
    17     8     9   ar
    18     9    10   ar
    19     2    21    1
    20    21    22   ar
    21    22    23   ar
    22    23    24   ar
    23    24    27    1
    24    27    28    1
    25    28    29    1
    26    29    30    1
    27    30    31    1
    28    31    32    1
    29    32    33    1
    30    24    25   ar
    31    25    26   ar
    32    10     5   ar
    33    26    21   ar
    34    19    11    1
    35    33    28    1
    36    20    11    1
    37    18    13    1
    38     3     4    1
@<TRIPOS>MOLECULE
*****
 33 38 0 0 0
SMALL
GASTEIGER

@<TRIPOS>ATOM
      1 O          63.4829   88.3250   11.6131 O.2     1  UNL1       -0.2698
      2 C          63.8260   88.0533   13.0479 C.2     1  UNL1        0.2495
      3 N          64.5774   89.0771   13.8461 N.am    1  UNL1       -0.2804
      4 H          64.8026   88.8989   14.7878 H       1  UNL1        0.1552
      5 C          64.9856   90.3726   13.2096 C.ar    1  UNL1        0.0505
      6 C          66.1383   91.1527   13.7690 C.ar    1  UNL1        0.0144
      7 C          66.5465   92.4481   13.1325 C.ar    1  UNL1       -0.0030
      8 C          65.8020   92.9635   11.9367 C.ar    1  UNL1       -0.0227
      9 C          64.6494   92.1835   11.3773 C.ar    1  UNL1       -0.0030
     10 C          64.2411   90.8880   12.0137 C.ar    1  UNL1        0.0144
     11 C          66.2103   94.2591   11.3002 C.3     1  UNL1        0.0189
     12 C          67.0851   94.2532   10.0817 C.3     1  UNL1        0.0040
     13 C          67.4933   95.5486    9.4453 C.3     1  UNL1        0.0003
     14 C          67.0267   96.8500   10.0273 C.3     1  UNL1        0.0000
     15 C          66.1519   96.8559   11.2458 C.3     1  UNL1        0.0003
     16 C          66.7772   93.7065   10.5392 C.3     1  UNL1        0.0000
     17 C          67.5517   92.9518    9.4997 C.3     1  UNL1        0.0003
     18 C          67.9599   94.2473    8.8633 C.3     1  UNL1        0.0000
     19 C          66.6769   92.9577   10.7182 C.3     1  UNL1        0.0040
     20 C          65.7437   95.5604   11.8822 C.3     1  UNL1        0.0040
     21 C          63.4178   86.7578   13.6843 C.ar    1  UNL1        0.0537
     22 C          62.7641   85.6897   12.8586 C.ar    1  UNL1        0.0042
     23 C          62.3559   84.3943   13.4951 C.ar    1  UNL1       -0.0028
     24 C          62.6014   84.1669   14.9573 C.ar    1  UNL1       -0.0061
     25 C          63.2551   85.2350   15.7830 C.ar    1  UNL1       -0.0028
     26 C          63.6633   86.5305   15.1465 C.ar    1  UNL1        0.0042
     27 C          62.1932   82.8714   15.5938 C.3     1  UNL1        0.0993
     28 N          62.1047   81.6240   14.7655 N.3     1  UNL1       -0.2646
     29 C          63.3547   80.9805   14.2428 C.3     1  UNL1        0.1049
     30 C          63.2662   79.7330   13.4145 C.3     1  UNL1        0.1595
     31 O          61.9276   79.1291   13.1090 O.3     1  UNL1       -0.3508
     32 C          60.6775   79.7726   13.6317 C.3     1  UNL1        0.1595
     33 C          60.7660   81.0200   14.4599 C.3     1  UNL1        0.1049
@<TRIPOS>BOND
     1     1     2    2
     2     2     3   am
     3     3     5    1
     4     5     6   ar
     5     6     7   ar
     6     7     8   ar
     7     8    11    1
     8    11    12    1
     9    12    13    1
    10    13    14    1
    11    14    15    1
    12    15    16    1
    13    16    17    1
    14    17    18    1
    15    17    19    1
    16    15    20    1
    17     8     9   ar
    18     9    10   ar
    19     2    21    1
    20    21    22   ar
    21    22    23   ar
    22    23    24   ar
    23    24    27    1
    24    27    28    1
    25    28    29    1
    26    29    30    1
    27    30    31    1
    28    31    32    1
    29    32    33    1
    30    24    25   ar
    31    25    26   ar
    32    10     5   ar
    33    26    21   ar
    34    19    11    1
    35    33    28    1
    36    20    11    1
    37    18    13    1
    38     3     4    1
@<TRIPOS>MOLECULE
*****
 33 38 0 0 0
SMALL
GASTEIGER

@<TRIPOS>ATOM
      1 O          60.9050   91.7887    2.1868 O.2     1  UNL1       -0.2698
      2 C          59.7170   92.6917    2.3389 C.2     1  UNL1        0.2495
      3 N          58.8184   92.5544    3.5321 N.am    1  UNL1       -0.2804
      4 H          58.0387   93.1471    3.6319 H       1  UNL1        0.1552
      5 C          59.1080   91.5142    4.5732 C.ar    1  UNL1        0.0505
      6 C          60.5273   91.1825    4.9277 C.ar    1  UNL1        0.0144
      7 C          60.8169   90.1422    5.9688 C.ar    1  UNL1       -0.0030
      8 C          59.6871   89.4336    6.6555 C.ar    1  UNL1       -0.0227
      9 C          58.2679   89.7652    6.3011 C.ar    1  UNL1       -0.0030
     10 C          57.9783   90.8055    5.2599 C.ar    1  UNL1        0.0144
     11 C          59.9767   88.3933    7.6967 C.3     1  UNL1        0.0189
     12 C          60.2702   88.8065    9.1084 C.3     1  UNL1        0.0040
     13 C          60.5598   87.7662   10.1495 C.3     1  UNL1        0.0003
     14 C          60.5559   86.3127    9.7789 C.3     1  UNL1        0.0000
     15 C          60.2624   85.8995    8.3671 C.3     1  UNL1        0.0003
     16 C          60.1024   89.1823    8.4500 C.3     1  UNL1        0.0000
     17 C          60.2742   90.2600    9.4791 C.3     1  UNL1        0.0003
     18 C          60.5638   89.2197   10.5202 C.3     1  UNL1        0.0000
     19 C          59.9807   89.8468    8.0673 C.3     1  UNL1        0.0040
     20 C          59.9728   86.9398    7.3260 C.3     1  UNL1        0.0040
     21 C          59.4275   93.7320    1.2977 C.ar    1  UNL1        0.0537
     22 C          58.5732   93.3901    0.1131 C.ar    1  UNL1        0.0042
     23 C          58.2838   94.4304   -0.9280 C.ar    1  UNL1       -0.0028
     24 C          58.8485   95.8125   -0.7846 C.ar    1  UNL1       -0.0061
     25 C          59.7028   96.1545    0.4000 C.ar    1  UNL1       -0.0028
     26 C          59.9922   95.1142    1.4412 C.ar    1  UNL1        0.0042
     27 C          58.5590   96.8528   -1.8258 C.3     1  UNL1        0.0993
     28 N          58.6317   96.4977   -3.2813 N.3     1  UNL1       -0.2646
     29 C          57.3920   96.5338   -4.1249 C.3     1  UNL1        0.1049
     30 C          57.4648   96.1787   -5.5805 C.3     1  UNL1        0.1595
     31 O          58.7772   95.7875   -6.1924 O.3     1  UNL1       -0.3508
     32 C          60.0170   95.7515   -5.3487 C.3     1  UNL1        0.1595
     33 C          59.9442   96.1066   -3.8932 C.3     1  UNL1        0.1049
@<TRIPOS>BOND
     1     1     2    2
     2     2     3   am
     3     3     5    1
     4     5     6   ar
     5     6     7   ar
     6     7     8   ar
     7     8    11    1
     8    11    12    1
     9    12    13    1
    10    13    14    1
    11    14    15    1
    12    15    16    1
    13    16    17    1
    14    17    18    1
    15    17    19    1
    16    15    20    1
    17     8     9   ar
    18     9    10   ar
    19     2    21    1
    20    21    22   ar
    21    22    23   ar
    22    23    24   ar
    23    24    27    1
    24    27    28    1
    25    28    29    1
    26    29    30    1
    27    30    31    1
    28    31    32    1
    29    32    33    1
    30    24    25   ar
    31    25    26   ar
    32    10     5   ar
    33    26    21   ar
    34    19    11    1
    35    33    28    1
    36    20    11    1
    37    18    13    1
    38     3     4    1
