@<TRIPOS>MOLECULE
*****
 25 27 0 0 0
SMALL
GASTEIGER

@<TRIPOS>ATOM
      1 N          61.3082   89.7316   12.6210 N.pl3   1  UNL1       -0.2150
      2 H          60.4794   89.9875   13.0867 H       1  UNL1        0.1737
      3 C          62.6250   90.2919   13.0710 C.ar    1  UNL1        0.0648
      4 C          63.1069   90.0441   14.4696 C.ar    1  UNL1        0.0159
      5 C          64.4235   90.6043   14.9195 C.ar    1  UNL1        0.0014
      6 C          65.2583   91.4124   13.9707 C.ar    1  UNL1        0.0031
      7 C          64.7764   91.6602   12.5721 C.ar    1  UNL1        0.0014
      8 C          63.4597   91.1000   12.1222 C.ar    1  UNL1        0.0159
      9 C          66.5750   91.9727   14.4207 C.ar    1  UNL1        0.0384
     10 C          66.6686   92.7181   15.7190 C.ar    1  UNL1        0.1022
     11 N          67.9854   93.2783   16.1689 N.ar    1  UNL1       -0.2224
     12 C          69.2085   93.0932   15.3205 C.ar    1  UNL1        0.1989
     13 N          69.1148   92.3477   14.0222 N.ar    1  UNL1       -0.2224
     14 C          67.7981   91.7875   13.5723 C.ar    1  UNL1        0.1022
     15 O          62.3102   87.9340   12.1069 O.2     1  UNL1       -0.1499
     16 S          61.2543   88.7816   11.4616 S.O2    1  UNL1        0.0736
     17 O          60.1983   89.6291   10.8162 O.2     1  UNL1       -0.1499
     18 C          61.2003   87.8315   10.3020 C.ar    1  UNL1        0.1268
     19 C          59.9904   87.7975    9.4159 C.ar    1  UNL1        0.0316
     20 C          59.9364   86.8475    8.2564 C.ar    1  UNL1        0.0599
     21 CL         58.7266   86.8136    7.3704 Cl      1  UNL1       -0.0822
     22 C          61.0922   85.9314    7.9830 C.ar    1  UNL1        0.0229
     23 C          62.3021   85.9653    8.8691 C.ar    1  UNL1        0.0599
     24 CL         63.4579   85.0492    8.5956 Cl      1  UNL1       -0.0822
     25 C          62.3561   86.9154   10.0286 C.ar    1  UNL1        0.0316
@<TRIPOS>BOND
     1    15    16    2
     2    16    17    2
     3    16     1    1
     4     1     3    1
     5     3     4   ar
     6     4     5   ar
     7     5     6   ar
     8     6     9    1
     9     9    10   ar
    10    10    11   ar
    11    11    12   ar
    12    12    13   ar
    13    13    14   ar
    14     6     7   ar
    15     7     8   ar
    16    16    18    1
    17    18    19   ar
    18    19    20   ar
    19    20    21    1
    20    20    22   ar
    21    22    23   ar
    22    23    24    1
    23    23    25   ar
    24     8     3   ar
    25    25    18   ar
    26    14     9   ar
    27     1     2    1
@<TRIPOS>MOLECULE
*****
 25 27 0 0 0
SMALL
GASTEIGER

@<TRIPOS>ATOM
      1 N          61.3079   89.7276   12.6548 N.pl3   1  UNL1       -0.2150
      2 H          60.4795   89.9825   13.1218 H       1  UNL1        0.1737
      3 C          62.6248   90.2886   13.1034 C.ar    1  UNL1        0.0648
      4 C          63.1042   90.0484   14.5043 C.ar    1  UNL1        0.0159
      5 C          64.4210   90.6094   14.9528 C.ar    1  UNL1        0.0014
      6 C          65.2584   91.4106   14.0005 C.ar    1  UNL1        0.0031
      7 C          64.7790   91.6507   12.5996 C.ar    1  UNL1        0.0014
      8 C          63.4622   91.0897   12.1511 C.ar    1  UNL1        0.0159
      9 C          66.5753   91.9716   14.4491 C.ar    1  UNL1        0.0384
     10 C          66.6737   92.7009   15.7561 C.ar    1  UNL1        0.1022
     11 N          67.9905   93.2620   16.2047 N.ar    1  UNL1       -0.2224
     12 C          69.2090   93.0936   15.3462 C.ar    1  UNL1        0.1989
     13 N          69.1106   92.3642   14.0391 N.ar    1  UNL1       -0.2224
     14 C          67.7938   91.8032   13.5906 C.ar    1  UNL1        0.1022
     15 O          62.3456   87.9581   12.1146 O.2     1  UNL1       -0.1499
     16 S          61.2532   88.7781   11.4949 S.O2    1  UNL1        0.0736
     17 O          60.1607   89.5982   10.8752 O.2     1  UNL1       -0.1499
     18 C          61.1985   87.8287   10.3348 C.ar    1  UNL1        0.1268
     19 C          62.3321   86.8774   10.0902 C.ar    1  UNL1        0.0316
     20 C          62.2774   85.9279    8.9302 C.ar    1  UNL1        0.0599
     21 CL         63.4110   84.9766    8.6856 Cl      1  UNL1       -0.0822
     22 C          61.0891   85.9299    8.0149 C.ar    1  UNL1        0.0229
     23 C          59.9554   86.8812    8.2596 C.ar    1  UNL1        0.0599
     24 CL         58.7671   86.8831    7.3442 Cl      1  UNL1       -0.0822
     25 C          60.0101   87.8306    9.4195 C.ar    1  UNL1        0.0316
@<TRIPOS>BOND
     1    15    16    2
     2    16    17    2
     3    16     1    1
     4     1     3    1
     5     3     4   ar
     6     4     5   ar
     7     5     6   ar
     8     6     9    1
     9     9    10   ar
    10    10    11   ar
    11    11    12   ar
    12    12    13   ar
    13    13    14   ar
    14     6     7   ar
    15     7     8   ar
    16    16    18    1
    17    18    19   ar
    18    19    20   ar
    19    20    21    1
    20    20    22   ar
    21    22    23   ar
    22    23    24    1
    23    23    25   ar
    24     8     3   ar
    25    25    18   ar
    26    14     9   ar
    27     1     2    1
@<TRIPOS>MOLECULE
*****
 25 27 0 0 0
SMALL
GASTEIGER

@<TRIPOS>ATOM
      1 N          63.8556   91.7563   13.0144 N.pl3   1  UNL1       -0.2150
      2 H          63.2047   92.3128   13.5002 H       1  UNL1        0.1737
      3 C          63.8337   90.2649   13.1738 C.ar    1  UNL1        0.0648
      4 C          64.4861   89.6282   14.3649 C.ar    1  UNL1        0.0159
      5 C          64.4643   88.1369   14.5242 C.ar    1  UNL1        0.0014
      6 C          63.7899   87.2823   13.4923 C.ar    1  UNL1        0.0031
      7 C          63.1375   87.9189   12.3011 C.ar    1  UNL1        0.0014
      8 C          63.1594   89.4102   12.1418 C.ar    1  UNL1        0.0159
      9 C          63.7681   85.7908   13.6516 C.ar    1  UNL1        0.0384
     10 C          64.4261   85.1537   14.8395 C.ar    1  UNL1        0.1022
     11 N          64.4042   83.6623   14.9988 N.ar    1  UNL1       -0.2224
     12 C          63.7243   82.8081   13.9702 C.ar    1  UNL1        0.1989
     13 N          63.0663   83.4453   12.7823 N.ar    1  UNL1       -0.2224
     14 C          63.0882   84.9366   12.6230 C.ar    1  UNL1        0.1022
     15 O          65.6172   92.8990   13.3154 O.2     1  UNL1       -0.1499
     16 S          64.8690   92.3997   12.1151 S.O2    1  UNL1        0.0736
     17 O          64.1208   91.9004   10.9148 O.2     1  UNL1       -0.1499
     18 C          65.8825   93.0432   11.2156 C.ar    1  UNL1        0.1268
     19 C          65.9257   94.5366   11.0819 C.ar    1  UNL1        0.0316
     20 C          66.9391   95.1800   10.1825 C.ar    1  UNL1        0.0599
     21 CL         66.9822   96.6734   10.0487 Cl      1  UNL1       -0.0822
     22 C          67.9093   94.3301    9.4169 C.ar    1  UNL1        0.0229
     23 C          67.8661   92.8367    9.5506 C.ar    1  UNL1        0.0599
     24 CL         68.8364   91.9867    8.7850 Cl      1  UNL1       -0.0822
     25 C          66.8527   92.1932   10.4500 C.ar    1  UNL1        0.0316
@<TRIPOS>BOND
     1    15    16    2
     2    16    17    2
     3    16     1    1
     4     1     3    1
     5     3     4   ar
     6     4     5   ar
     7     5     6   ar
     8     6     9    1
     9     9    10   ar
    10    10    11   ar
    11    11    12   ar
    12    12    13   ar
    13    13    14   ar
    14     6     7   ar
    15     7     8   ar
    16    16    18    1
    17    18    19   ar
    18    19    20   ar
    19    20    21    1
    20    20    22   ar
    21    22    23   ar
    22    23    24    1
    23    23    25   ar
    24     8     3   ar
    25    25    18   ar
    26    14     9   ar
    27     1     2    1
@<TRIPOS>MOLECULE
*****
 25 27 0 0 0
SMALL
GASTEIGER

@<TRIPOS>ATOM
      1 N          63.8796   91.7577   13.0305 N.pl3   1  UNL1       -0.2150
      2 H          63.2327   92.3175   13.5177 H       1  UNL1        0.1737
      3 C          63.8528   90.2666   13.1926 C.ar    1  UNL1        0.0648
      4 C          64.4945   89.6307   14.3900 C.ar    1  UNL1        0.0159
      5 C          64.4677   88.1398   14.5520 C.ar    1  UNL1        0.0014
      6 C          63.7992   87.2847   13.5167 C.ar    1  UNL1        0.0031
      7 C          63.1575   87.9206   12.3193 C.ar    1  UNL1        0.0014
      8 C          63.1843   89.4116   12.1572 C.ar    1  UNL1        0.0159
      9 C          63.7723   85.7937   13.6787 C.ar    1  UNL1        0.0384
     10 C          64.4139   85.1578   14.8762 C.ar    1  UNL1        0.1022
     11 N          64.3871   83.6668   15.0383 N.ar    1  UNL1       -0.2224
     12 C          63.7187   82.8117   14.0029 C.ar    1  UNL1        0.1989
     13 N          63.0771   83.4477   12.8053 N.ar    1  UNL1       -0.2224
     14 C          63.1040   84.9386   12.6433 C.ar    1  UNL1        0.1022
     15 O          64.1466   91.8831   10.9299 O.2     1  UNL1       -0.1499
     16 S          64.8921   92.3957   12.1263 S.O2    1  UNL1        0.0736
     17 O          65.6376   92.9083   13.3227 O.2     1  UNL1       -0.1499
     18 C          65.9047   93.0338   11.2220 C.ar    1  UNL1        0.1268
     19 C          66.8721   92.1791   10.4581 C.ar    1  UNL1        0.0316
     20 C          67.8847   92.8171    9.5539 C.ar    1  UNL1        0.0599
     21 CL         68.8521   91.9624    8.7900 Cl      1  UNL1       -0.0822
     22 C          67.9297   94.3098    9.4135 C.ar    1  UNL1        0.0229
     23 C          66.9622   95.1645   10.1774 C.ar    1  UNL1        0.0599
     24 CL         67.0073   96.6573   10.0369 Cl      1  UNL1       -0.0822
     25 C          65.9497   94.5265   11.0816 C.ar    1  UNL1        0.0316
@<TRIPOS>BOND
     1    15    16    2
     2    16    17    2
     3    16     1    1
     4     1     3    1
     5     3     4   ar
     6     4     5   ar
     7     5     6   ar
     8     6     9    1
     9     9    10   ar
    10    10    11   ar
    11    11    12   ar
    12    12    13   ar
    13    13    14   ar
    14     6     7   ar
    15     7     8   ar
    16    16    18    1
    17    18    19   ar
    18    19    20   ar
    19    20    21    1
    20    20    22   ar
    21    22    23   ar
    22    23    24    1
    23    23    25   ar
    24     8     3   ar
    25    25    18   ar
    26    14     9   ar
    27     1     2    1
@<TRIPOS>MOLECULE
*****
 25 27 0 0 0
SMALL
GASTEIGER

@<TRIPOS>ATOM
      1 N          61.8173   88.6401   11.7204 N.pl3   1  UNL1       -0.2150
      2 H          60.8793   88.9273   11.8031 H       1  UNL1        0.1737
      3 C          62.9050   89.4298   12.3865 C.ar    1  UNL1        0.0648
      4 C          63.6036   88.8751   13.5924 C.ar    1  UNL1        0.0159
      5 C          64.6912   89.6648   14.2583 C.ar    1  UNL1        0.0014
      6 C          65.0802   91.0091   13.7184 C.ar    1  UNL1        0.0031
      7 C          64.3815   91.5638   12.5125 C.ar    1  UNL1        0.0014
      8 C          63.2939   90.7741   11.8465 C.ar    1  UNL1        0.0159
      9 C          66.1678   91.7988   14.3844 C.ar    1  UNL1        0.0384
     10 C          65.9414   92.3874   15.7454 C.ar    1  UNL1        0.1022
     11 N          67.0291   93.1771   16.4114 N.ar    1  UNL1       -0.2224
     12 C          68.3431   93.3781   15.7164 C.ar    1  UNL1        0.1989
     13 N          68.5694   92.7894   14.3554 N.ar    1  UNL1       -0.2224
     14 C          67.4818   91.9998   13.6894 C.ar    1  UNL1        0.1022
     15 O          61.8151   86.5549   12.1097 O.2     1  UNL1       -0.1499
     16 S          62.1589   87.4130   10.9284 S.O2    1  UNL1        0.0736
     17 O          62.5028   88.2710    9.7472 O.2     1  UNL1       -0.1499
     18 C          62.5005   86.1857   10.1364 C.ar    1  UNL1        0.1268
     19 C          63.1535   85.0157   10.8105 C.ar    1  UNL1        0.0316
     20 C          63.4951   83.7885   10.0186 C.ar    1  UNL1        0.0599
     21 CL         64.1481   82.6184   10.6927 Cl      1  UNL1       -0.0822
     22 C          63.1838   83.7314    8.5524 C.ar    1  UNL1        0.0229
     23 C          62.5308   84.9015    7.8782 C.ar    1  UNL1        0.0599
     24 CL         62.2194   84.8444    6.4119 Cl      1  UNL1       -0.0822
     25 C          62.1892   86.1287    8.6702 C.ar    1  UNL1        0.0316
@<TRIPOS>BOND
     1    15    16    2
     2    16    17    2
     3    16     1    1
     4     1     3    1
     5     3     4   ar
     6     4     5   ar
     7     5     6   ar
     8     6     9    1
     9     9    10   ar
    10    10    11   ar
    11    11    12   ar
    12    12    13   ar
    13    13    14   ar
    14     6     7   ar
    15     7     8   ar
    16    16    18    1
    17    18    19   ar
    18    19    20   ar
    19    20    21    1
    20    20    22   ar
    21    22    23   ar
    22    23    24    1
    23    23    25   ar
    24     8     3   ar
    25    25    18   ar
    26    14     9   ar
    27     1     2    1
@<TRIPOS>MOLECULE
*****
 25 27 0 0 0
SMALL
GASTEIGER

@<TRIPOS>ATOM
      1 N          62.9091   85.7500   16.3642 N.pl3   1  UNL1       -0.2150
      2 H          62.6254   85.6316   17.2995 H       1  UNL1        0.1737
      3 C          63.4316   87.0777   15.9012 C.ar    1  UNL1        0.0648
      4 C          64.2354   87.1683   14.6381 C.ar    1  UNL1        0.0159
      5 C          64.7579   88.4960   14.1752 C.ar    1  UNL1        0.0014
      6 C          64.4765   89.7331   14.9755 C.ar    1  UNL1        0.0031
      7 C          63.6727   89.6425   16.2386 C.ar    1  UNL1        0.0014
      8 C          63.1502   88.3148   16.7015 C.ar    1  UNL1        0.0159
      9 C          64.9990   91.0608   14.5125 C.ar    1  UNL1        0.0384
     10 C          64.8142   91.4832   13.0852 C.ar    1  UNL1        0.1022
     11 N          65.3367   92.8109   12.6223 N.ar    1  UNL1       -0.2224
     12 C          66.0440   93.7162   13.5867 C.ar    1  UNL1        0.1989
     13 N          66.2288   93.2937   15.0142 N.ar    1  UNL1       -0.2224
     14 C          65.7063   91.9661   15.4770 C.ar    1  UNL1        0.1022
     15 O          64.2870   84.3461   15.5704 O.2     1  UNL1       -0.1499
     16 S          62.8188   84.6028   15.4021 S.O2    1  UNL1        0.0736
     17 O          61.3506   84.8594   15.2339 O.2     1  UNL1       -0.1499
     18 C          62.7284   83.4555   14.4400 C.ar    1  UNL1        0.1268
     19 C          63.5668   83.4520   13.1962 C.ar    1  UNL1        0.0316
     20 C          63.4765   82.3047   12.2341 C.ar    1  UNL1        0.0599
     21 CL         64.3149   82.3012   10.9903 Cl      1  UNL1       -0.0822
     22 C          62.5478   81.1610   12.5158 C.ar    1  UNL1        0.0229
     23 C          61.7095   81.1645   13.7597 C.ar    1  UNL1        0.0599
     24 CL         60.7807   80.0207   14.0414 Cl      1  UNL1       -0.0822
     25 C          61.7998   82.3118   14.7218 C.ar    1  UNL1        0.0316
@<TRIPOS>BOND
     1    15    16    2
     2    16    17    2
     3    16     1    1
     4     1     3    1
     5     3     4   ar
     6     4     5   ar
     7     5     6   ar
     8     6     9    1
     9     9    10   ar
    10    10    11   ar
    11    11    12   ar
    12    12    13   ar
    13    13    14   ar
    14     6     7   ar
    15     7     8   ar
    16    16    18    1
    17    18    19   ar
    18    19    20   ar
    19    20    21    1
    20    20    22   ar
    21    22    23   ar
    22    23    24    1
    23    23    25   ar
    24     8     3   ar
    25    25    18   ar
    26    14     9   ar
    27     1     2    1
@<TRIPOS>MOLECULE
*****
 25 27 0 0 0
SMALL
GASTEIGER

@<TRIPOS>ATOM
      1 N          62.9104   85.7595   16.3433 N.pl3   1  UNL1       -0.2150
      2 H          62.6112   85.6398   17.2736 H       1  UNL1        0.1737
      3 C          63.4373   87.0889   15.8902 C.ar    1  UNL1        0.0648
      4 C          63.1627   88.3205   16.7011 C.ar    1  UNL1        0.0159
      5 C          63.6897   89.6497   16.2479 C.ar    1  UNL1        0.0014
      6 C          64.4912   89.7473   14.9837 C.ar    1  UNL1        0.0031
      7 C          64.7658   88.5157   14.1728 C.ar    1  UNL1        0.0014
      8 C          64.2389   87.1865   14.6260 C.ar    1  UNL1        0.0159
      9 C          65.0181   91.0767   14.5306 C.ar    1  UNL1        0.0384
     10 C          65.7365   91.9685   15.4993 C.ar    1  UNL1        0.1022
     11 N          66.2634   93.2978   15.0461 N.ar    1  UNL1       -0.2224
     12 C          66.0720   93.7352   13.6242 C.ar    1  UNL1        0.1989
     13 N          65.3536   92.8433   12.6554 N.ar    1  UNL1       -0.2224
     14 C          64.8267   91.5141   13.1086 C.ar    1  UNL1        0.1022
     15 O          64.3129   84.3844   15.5422 O.2     1  UNL1       -0.1499
     16 S          62.8394   84.6127   15.3792 S.O2    1  UNL1        0.0736
     17 O          61.3659   84.8409   15.2162 O.2     1  UNL1       -0.1499
     18 C          62.7683   83.4658   14.4150 C.ar    1  UNL1        0.1268
     19 C          61.8919   82.2862   14.7159 C.ar    1  UNL1        0.0316
     20 C          61.8208   81.1394   13.7517 C.ar    1  UNL1        0.0599
     21 CL         60.9443   79.9598   14.0526 Cl      1  UNL1       -0.0822
     22 C          62.6262   81.1720   12.4868 C.ar    1  UNL1        0.0229
     23 C          63.5026   82.3515   12.1859 C.ar    1  UNL1        0.0599
     24 CL         64.3081   82.3841   10.9208 Cl      1  UNL1       -0.0822
     25 C          63.5737   83.4984   13.1500 C.ar    1  UNL1        0.0316
@<TRIPOS>BOND
     1    15    16    2
     2    16    17    2
     3    16     1    1
     4     1     3    1
     5     3     4   ar
     6     4     5   ar
     7     5     6   ar
     8     6     9    1
     9     9    10   ar
    10    10    11   ar
    11    11    12   ar
    12    12    13   ar
    13    13    14   ar
    14     6     7   ar
    15     7     8   ar
    16    16    18    1
    17    18    19   ar
    18    19    20   ar
    19    20    21    1
    20    20    22   ar
    21    22    23   ar
    22    23    24    1
    23    23    25   ar
    24     8     3   ar
    25    25    18   ar
    26    14     9   ar
    27     1     2    1
@<TRIPOS>MOLECULE
*****
 25 27 0 0 0
SMALL
GASTEIGER

@<TRIPOS>ATOM
      1 N          62.3373   89.4232   12.4728 N.pl3   1  UNL1       -0.2150
      2 H          61.6707   89.5940   13.1769 H       1  UNL1        0.1737
      3 C          63.2340   90.5308   12.0044 C.ar    1  UNL1        0.0648
      4 C          63.1542   91.0111   10.5857 C.ar    1  UNL1        0.0159
      5 C          64.0509   92.1186   10.1173 C.ar    1  UNL1        0.0014
      6 C          65.0273   92.7457   11.0677 C.ar    1  UNL1        0.0031
      7 C          65.1071   92.2654   12.4864 C.ar    1  UNL1        0.0014
      8 C          64.2104   91.1579   12.9548 C.ar    1  UNL1        0.0159
      9 C          65.9241   93.8532   10.5992 C.ar    1  UNL1        0.0384
     10 C          67.0427   93.5594    9.6442 C.ar    1  UNL1        0.1022
     11 N          67.9394   94.6669    9.1757 N.ar    1  UNL1       -0.2224
     12 C          67.7174   96.0683    9.6624 C.ar    1  UNL1        0.1989
     13 N          66.5987   96.3621   10.6176 N.ar    1  UNL1       -0.2224
     14 C          65.7020   95.2546   11.0859 C.ar    1  UNL1        0.1022
     15 O          63.5691   87.7316   12.8205 O.2     1  UNL1       -0.1499
     16 S          62.4562   88.0556   11.8685 S.O2    1  UNL1        0.0736
     17 O          61.3433   88.3795   10.9164 O.2     1  UNL1       -0.1499
     18 C          62.5750   86.6878   11.2641 C.ar    1  UNL1        0.1268
     19 C          62.6016   86.5265    9.7730 C.ar    1  UNL1        0.0316
     20 C          62.7205   85.1589    9.1686 C.ar    1  UNL1        0.0599
     21 CL         62.7471   84.9975    7.6775 Cl      1  UNL1       -0.0822
     22 C          62.8128   83.9525   10.0552 C.ar    1  UNL1        0.0229
     23 C          62.7862   84.1138   11.5463 C.ar    1  UNL1        0.0599
     24 CL         62.8785   82.9074   12.4330 Cl      1  UNL1       -0.0822
     25 C          62.6673   85.4815   12.1507 C.ar    1  UNL1        0.0316
@<TRIPOS>BOND
     1    15    16    2
     2    16    17    2
     3    16     1    1
     4     1     3    1
     5     3     4   ar
     6     4     5   ar
     7     5     6   ar
     8     6     9    1
     9     9    10   ar
    10    10    11   ar
    11    11    12   ar
    12    12    13   ar
    13    13    14   ar
    14     6     7   ar
    15     7     8   ar
    16    16    18    1
    17    18    19   ar
    18    19    20   ar
    19    20    21    1
    20    20    22   ar
    21    22    23   ar
    22    23    24    1
    23    23    25   ar
    24     8     3   ar
    25    25    18   ar
    26    14     9   ar
    27     1     2    1
@<TRIPOS>MOLECULE
*****
 25 27 0 0 0
SMALL
GASTEIGER

@<TRIPOS>ATOM
      1 N          62.4526   89.7005   11.6006 N.pl3   1  UNL1       -0.2150
      2 H          61.6727   90.0251   11.0951 H       1  UNL1        0.1737
      3 C          62.6039   88.2359   11.8875 C.ar    1  UNL1        0.0648
      4 C          63.5157   87.7772   12.9866 C.ar    1  UNL1        0.0159
      5 C          63.6670   86.3127   13.2734 C.ar    1  UNL1        0.0014
      6 C          62.9063   85.3069   12.4612 C.ar    1  UNL1        0.0031
      7 C          61.9944   85.7656   11.3621 C.ar    1  UNL1        0.0014
      8 C          61.8432   87.2301   11.0753 C.ar    1  UNL1        0.0159
      9 C          63.0575   83.8424   12.7480 C.ar    1  UNL1        0.0384
     10 C          63.3734   83.3793   14.1394 C.ar    1  UNL1        0.1022
     11 N          63.5247   81.9148   14.4262 N.ar    1  UNL1       -0.2224
     12 C          63.3600   80.9133   13.3217 C.ar    1  UNL1        0.1989
     13 N          63.0441   81.3764   11.9304 N.ar    1  UNL1       -0.2224
     14 C          62.8929   82.8409   11.6436 C.ar    1  UNL1        0.1022
     15 O          63.9400   90.8932   10.6706 O.2     1  UNL1       -0.1499
     16 S          63.4897   90.6704   12.0839 S.O2    1  UNL1        0.0736
     17 O          63.0394   90.4477   13.4973 O.2     1  UNL1       -0.1499
     18 C          64.5268   91.6404   12.5673 C.ar    1  UNL1        0.1268
     19 C          65.0461   91.5453   13.9714 C.ar    1  UNL1        0.0316
     20 C          66.0832   92.5153   14.4548 C.ar    1  UNL1        0.0599
     21 CL         66.6024   92.4202   15.8588 Cl      1  UNL1       -0.0822
     22 C          66.6010   93.5802   13.5341 C.ar    1  UNL1        0.0229
     23 C          66.0817   93.6753   12.1301 C.ar    1  UNL1        0.0599
     24 CL         66.5996   94.7404   11.2094 Cl      1  UNL1       -0.0822
     25 C          65.0447   92.7054   11.6467 C.ar    1  UNL1        0.0316
@<TRIPOS>BOND
     1    15    16    2
     2    16    17    2
     3    16     1    1
     4     1     3    1
     5     3     4   ar
     6     4     5   ar
     7     5     6   ar
     8     6     9    1
     9     9    10   ar
    10    10    11   ar
    11    11    12   ar
    12    12    13   ar
    13    13    14   ar
    14     6     7   ar
    15     7     8   ar
    16    16    18    1
    17    18    19   ar
    18    19    20   ar
    19    20    21    1
    20    20    22   ar
    21    22    23   ar
    22    23    24    1
    23    23    25   ar
    24     8     3   ar
    25    25    18   ar
    26    14     9   ar
    27     1     2    1
