@<TRIPOS>MOLECULE
*****
 40 43 0 0 0
SMALL
GASTEIGER

@<TRIPOS>ATOM
      1 C          63.9180   86.2072   15.5918 C.ar    1  UNL1        0.0611
      2 C          63.1920   85.7244   16.8124 C.ar    1  UNL1        0.1037
      3 N          62.7251   86.9259   17.5795 N.ar    1  UNL1       -0.2269
      4 C          63.1626   88.1513   16.8330 C.ar    1  UNL1        0.1407
      5 N          62.9848   89.6141   17.1132 N.ar    1  UNL1       -0.3374
      6 C          63.5443   90.6327   16.1649 C.ar    1  UNL1        0.0734
      7 C          64.2815   90.1885   14.9364 C.ar    1  UNL1        0.0171
      8 C          64.4593   88.7257   14.6562 C.ar    1  UNL1        0.0046
      9 C          63.8998   87.7071   15.6045 C.ar    1  UNL1        0.0386
     10 H          62.5010   89.9056   17.9195 H       1  UNL1        0.1674
     11 C          64.8411   91.2072   13.9881 C.ar    1  UNL1        0.0015
     12 C          65.9368   92.1278   14.4372 C.ar    1  UNL1        0.0014
     13 C          66.4963   93.1465   13.4888 C.ar    1  UNL1        0.0199
     14 C          65.9600   93.2446   12.0914 C.ar    1  UNL1        0.1222
     15 C          64.8642   92.3239   11.6423 C.ar    1  UNL1        0.0199
     16 C          64.3047   91.3052   12.5907 C.ar    1  UNL1        0.0014
     17 S          66.5194   94.2632   11.1431 S.O2    1  UNL1        0.0634
     18 O          66.9402   93.1652   10.2119 O.2     1  UNL1       -0.1528
     19 O          66.0986   95.3612   12.0743 O.2     1  UNL1       -0.1528
     20 N          67.0789   95.2818   10.1948 N.3     1  UNL1       -0.1526
     21 C          67.8888   94.8403    9.0120 C.3     1  UNL1        0.1150
     22 C          66.8284   96.7421   10.4293 C.3     1  UNL1        0.1150
     23 C          64.5510   85.3421   14.5426 C.2     1  UNL1        0.2015
     24 O          65.9879   84.9327   14.6748 O.2     1  UNL1       -0.2864
     25 C          62.4247   85.4342   11.1928 C.ar    1  UNL1        0.0920
     26 C          62.1390   83.9746   10.9982 C.ar    1  UNL1        0.0204
     27 C          62.6573   82.9708   11.9851 C.ar    1  UNL1        0.0312
     28 C          63.4612   83.4266   13.1665 C.ar    1  UNL1        0.1454
     29 F          63.9795   82.4228   14.1534 F       1  UNL1       -0.2040
     30 C          63.7470   84.8862   13.3611 C.ar    1  UNL1        0.0951
     31 C          63.2287   85.8900   12.3743 C.ar    1  UNL1        0.1598
     32 F          63.5145   87.3496   12.5689 F       1  UNL1       -0.2026
     33 N          61.9065   86.4379   10.2060 N.pl3   1  UNL1       -0.2166
     34 H          61.7776   87.3751   10.4787 H       1  UNL1        0.1734
     35 S          61.5845   86.0138    8.8037 S.O2    1  UNL1        0.0540
     36 O          63.0371   85.7348    8.5546 O.2     1  UNL1       -0.1545
     37 O          60.1319   86.2928    9.0528 O.2     1  UNL1       -0.1545
     38 C          61.2625   85.5897    7.4014 C.3     1  UNL1        0.1724
     39 C          61.8228   84.1123    5.3390 C.3     1  UNL1        0.0019
     40 C          62.2422   84.7607    6.6249 C.3     1  UNL1        0.0273
@<TRIPOS>BOND
     1    39    40    1
     2    40    38    1
     3    38    35    1
     4    35    36    2
     5    35    37    2
     6    35    33    1
     7    33    25    1
     8    25    26   ar
     9    26    27   ar
    10    27    28   ar
    11    28    29    1
    12    28    30   ar
    13    30    23    1
    14    23    24    2
    15    23     1    1
    16     1     2   ar
    17     2     3   ar
    18     3     4   ar
    19     4     5   ar
    20     5     6   ar
    21     6     7   ar
    22     7    11    1
    23    11    12   ar
    24    12    13   ar
    25    13    14   ar
    26    14    17    1
    27    17    18    2
    28    17    19    2
    29    17    20    1
    30    20    21    1
    31    20    22    1
    32    14    15   ar
    33    15    16   ar
    34     7     8   ar
    35     8     9   ar
    36    30    31   ar
    37    31    32    1
    38    31    25   ar
    39     9     1   ar
    40     9     4    1
    41    16    11   ar
    42    33    34    1
    43     5    10    1
@<TRIPOS>MOLECULE
*****
 40 43 0 0 0
SMALL
GASTEIGER

@<TRIPOS>ATOM
      1 C          63.9951   86.4127   15.6087 C.ar    1  UNL1        0.0611
      2 C          63.2701   85.9753   16.8468 C.ar    1  UNL1        0.1037
      3 N          62.7762   87.2031   17.5529 N.ar    1  UNL1       -0.2269
      4 C          63.1960   88.3994   16.7511 C.ar    1  UNL1        0.1407
      5 N          62.9897   89.8703   16.9600 N.ar    1  UNL1       -0.3374
      6 C          63.5366   90.8528   15.9673 C.ar    1  UNL1        0.0734
      7 C          64.2899   90.3643   14.7656 C.ar    1  UNL1        0.0171
      8 C          64.4963   88.8933   14.5568 C.ar    1  UNL1        0.0046
      9 C          63.9493   87.9109   15.5495 C.ar    1  UNL1        0.0386
     10 H          62.4952   90.1910   17.7487 H       1  UNL1        0.1674
     11 C          64.8369   91.3468   13.7729 C.ar    1  UNL1        0.0015
     12 C          65.9267   92.2946   14.1780 C.ar    1  UNL1        0.0014
     13 C          66.4736   93.2771   13.1852 C.ar    1  UNL1        0.0199
     14 C          65.9308   93.3118   11.7873 C.ar    1  UNL1        0.1222
     15 C          64.8410   92.3640   11.3822 C.ar    1  UNL1        0.0199
     16 C          64.2941   91.3815   12.3750 C.ar    1  UNL1        0.0014
     17 S          66.4777   94.2943   10.7946 S.O2    1  UNL1        0.0634
     18 O          66.1675   95.4192   11.7370 O.2     1  UNL1       -0.1528
     19 O          66.7879   93.1693    9.8522 O.2     1  UNL1       -0.1528
     20 N          67.0246   95.2767    9.8018 N.3     1  UNL1       -0.1526
     21 C          66.9633   96.7475   10.0903 C.3     1  UNL1        0.1150
     22 C          67.6329   94.7885    8.5205 C.3     1  UNL1        0.1150
     23 C          64.6508   85.5104   14.6057 C.2     1  UNL1        0.2015
     24 O          66.1355   85.3009   14.6431 O.2     1  UNL1       -0.2864
     25 C          62.3686   84.9163   11.4136 C.ar    1  UNL1        0.0920
     26 C          62.1633   83.4321   11.4842 C.ar    1  UNL1        0.0204
     27 C          62.7871   82.6407   12.5953 C.ar    1  UNL1        0.0312
     28 C          63.6163   83.3334   13.6358 C.ar    1  UNL1        0.1454
     29 F          64.2401   82.5420   14.7468 F       1  UNL1       -0.2040
     30 C          63.8216   84.8176   13.5652 C.ar    1  UNL1        0.0951
     31 C          63.1977   85.6090   12.4541 C.ar    1  UNL1        0.1598
     32 F          63.4031   87.0933   12.3836 F       1  UNL1       -0.2026
     33 N          61.7448   85.7077   10.3026 N.pl3   1  UNL1       -0.2166
     34 H          61.4125   85.2487    9.4975 H       1  UNL1        0.1734
     35 S          61.6271   87.1986   10.4181 S.O2    1  UNL1        0.0540
     36 O          60.5791   87.0338   11.4785 O.2     1  UNL1       -0.1545
     37 O          62.6752   87.3635    9.3577 O.2     1  UNL1       -0.1545
     38 C          61.5096   88.6895   10.5335 C.3     1  UNL1        0.1724
     39 C          59.7253   90.4471   11.2245 C.3     1  UNL1        0.0019
     40 C          60.6162   89.2929   11.5766 C.3     1  UNL1        0.0273
@<TRIPOS>BOND
     1    39    40    1
     2    40    38    1
     3    38    35    1
     4    35    36    2
     5    35    37    2
     6    35    33    1
     7    33    25    1
     8    25    26   ar
     9    26    27   ar
    10    27    28   ar
    11    28    29    1
    12    28    30   ar
    13    30    23    1
    14    23    24    2
    15    23     1    1
    16     1     2   ar
    17     2     3   ar
    18     3     4   ar
    19     4     5   ar
    20     5     6   ar
    21     6     7   ar
    22     7    11    1
    23    11    12   ar
    24    12    13   ar
    25    13    14   ar
    26    14    17    1
    27    17    18    2
    28    17    19    2
    29    17    20    1
    30    20    21    1
    31    20    22    1
    32    14    15   ar
    33    15    16   ar
    34     7     8   ar
    35     8     9   ar
    36    30    31   ar
    37    31    32    1
    38    31    25   ar
    39     9     1   ar
    40     9     4    1
    41    16    11   ar
    42    33    34    1
    43     5    10    1
@<TRIPOS>MOLECULE
*****
 40 43 0 0 0
SMALL
GASTEIGER

@<TRIPOS>ATOM
      1 C          61.4739   86.4365    9.1953 C.ar    1  UNL1        0.0611
      2 C          60.1289   86.3548    8.5363 C.ar    1  UNL1        0.1037
      3 N          59.3767   87.6113    8.8610 N.ar    1  UNL1       -0.2269
      4 C          60.2567   88.4695    9.7206 C.ar    1  UNL1        0.1407
      5 N          60.0453   89.8183   10.3418 N.ar    1  UNL1       -0.3374
      6 C          61.1300   90.4410   11.1697 C.ar    1  UNL1        0.0734
      7 C          62.4262   89.7149   11.3764 C.ar    1  UNL1        0.0171
      8 C          62.6377   88.3661   10.7551 C.ar    1  UNL1        0.0046
      9 C          61.5529   87.7434    9.9272 C.ar    1  UNL1        0.0386
     10 H          59.1946   90.2948   10.2062 H       1  UNL1        0.1674
     11 C          63.5110   90.3377   12.2044 C.ar    1  UNL1        0.0015
     12 C          64.2309   91.5550   11.7044 C.ar    1  UNL1        0.0014
     13 C          65.3157   92.1778   12.5323 C.ar    1  UNL1        0.0199
     14 C          65.6805   91.5833   13.8603 C.ar    1  UNL1        0.1222
     15 C          64.9606   90.3660   14.3603 C.ar    1  UNL1        0.0199
     16 C          63.8759   89.7432   13.5323 C.ar    1  UNL1        0.0014
     17 S          66.7652   92.2060   14.6882 S.O2    1  UNL1        0.0634
     18 O          67.7925   91.7148   13.7118 O.2     1  UNL1       -0.1528
     19 O          65.7380   92.6972   15.6646 O.2     1  UNL1       -0.1528
     20 N          67.8499   92.8287   15.5162 N.3     1  UNL1       -0.1526
     21 C          68.1600   94.2891   15.3703 C.3     1  UNL1        0.1150
     22 C          68.6246   91.9911   16.4901 C.3     1  UNL1        0.1150
     23 C          62.5509   85.3942    9.1334 C.2     1  UNL1        0.2015
     24 O          63.2418   85.1060    7.8336 O.2     1  UNL1       -0.2864
     25 C          62.6695   84.2109   12.9197 C.ar    1  UNL1        0.0920
     26 C          63.7089   83.1319   12.8470 C.ar    1  UNL1        0.0204
     27 C          64.3624   82.8070   11.5365 C.ar    1  UNL1        0.0312
     28 C          63.9764   83.5611   10.2986 C.ar    1  UNL1        0.1454
     29 F          64.6298   83.2362    8.9881 F       1  UNL1       -0.2040
     30 C          62.9369   84.6401   10.3713 C.ar    1  UNL1        0.0951
     31 C          62.2835   84.9650   11.6818 C.ar    1  UNL1        0.1598
     32 F          61.2440   86.0440   11.7544 F       1  UNL1       -0.2026
     33 N          62.0160   84.5358   14.2302 N.pl3   1  UNL1       -0.2166
     34 H          61.0548   84.3647   14.3568 H       1  UNL1        0.1734
     35 S          62.8271   85.1215   15.3478 S.O2    1  UNL1        0.0540
     36 O          63.4229   86.1150   14.3948 O.2     1  UNL1       -0.1545
     37 O          62.2314   84.1281   16.3008 O.2     1  UNL1       -0.1545
     38 C          63.6381   85.7072   16.4655 C.3     1  UNL1        0.1724
     39 C          63.0012   88.1158   17.2024 C.3     1  UNL1        0.0019
     40 C          62.9950   86.6367   17.4516 C.3     1  UNL1        0.0273
@<TRIPOS>BOND
     1    39    40    1
     2    40    38    1
     3    38    35    1
     4    35    36    2
     5    35    37    2
     6    35    33    1
     7    33    25    1
     8    25    26   ar
     9    26    27   ar
    10    27    28   ar
    11    28    29    1
    12    28    30   ar
    13    30    23    1
    14    23    24    2
    15    23     1    1
    16     1     2   ar
    17     2     3   ar
    18     3     4   ar
    19     4     5   ar
    20     5     6   ar
    21     6     7   ar
    22     7    11    1
    23    11    12   ar
    24    12    13   ar
    25    13    14   ar
    26    14    17    1
    27    17    18    2
    28    17    19    2
    29    17    20    1
    30    20    21    1
    31    20    22    1
    32    14    15   ar
    33    15    16   ar
    34     7     8   ar
    35     8     9   ar
    36    30    31   ar
    37    31    32    1
    38    31    25   ar
    39     9     1   ar
    40     9     4    1
    41    16    11   ar
    42    33    34    1
    43     5    10    1
@<TRIPOS>MOLECULE
*****
 40 43 0 0 0
SMALL
GASTEIGER

@<TRIPOS>ATOM
      1 C          63.3999   84.5930   14.1956 C.ar    1  UNL1        0.0611
      2 C          62.8117   83.8143   15.3348 C.ar    1  UNL1        0.1037
      3 N          62.5547   84.7676   16.4640 N.ar    1  UNL1       -0.2269
      4 C          62.9841   86.1354   16.0228 C.ar    1  UNL1        0.1407
      5 N          62.9670   87.4652   16.7166 N.ar    1  UNL1       -0.3374
      6 C          63.4722   88.6871   16.0083 C.ar    1  UNL1        0.0734
      7 C          63.9946   88.5792   14.6064 C.ar    1  UNL1        0.0171
      8 C          64.0118   87.2494   13.9126 C.ar    1  UNL1        0.0046
      9 C          63.5065   86.0275   14.6209 C.ar    1  UNL1        0.0386
     10 H          62.6241   87.5360   17.6367 H       1  UNL1        0.1674
     11 C          64.4999   89.8012   13.8981 C.ar    1  UNL1        0.0015
     12 C          63.8445   90.2568   12.6282 C.ar    1  UNL1        0.0014
     13 C          64.3497   91.4788   11.9199 C.ar    1  UNL1        0.0199
     14 C          65.5104   92.2451   12.4817 C.ar    1  UNL1        0.1222
     15 C          66.1658   91.7894   13.7518 C.ar    1  UNL1        0.0199
     16 C          65.6606   90.5675   14.4599 C.ar    1  UNL1        0.0014
     17 S          66.0157   93.4671   11.7736 S.O2    1  UNL1        0.0634
     18 O          66.3839   94.0792   13.0925 O.2     1  UNL1       -0.1528
     19 O          65.6474   92.8549   10.4546 O.2     1  UNL1       -0.1528
     20 N          66.5209   94.6890   11.0654 N.3     1  UNL1       -0.1526
     21 C          66.1823   96.0532   11.5891 C.3     1  UNL1        0.1150
     22 C          67.3649   94.5468    9.8335 C.3     1  UNL1        0.1150
     23 C          63.8097   84.0351   12.8649 C.2     1  UNL1        0.2015
     24 O          64.8126   82.9220   12.7949 O.2     1  UNL1       -0.2864
     25 C          61.4325   86.0556   10.4119 C.ar    1  UNL1        0.0920
     26 C          62.0299   85.7011    9.0824 C.ar    1  UNL1        0.0204
     27 C          63.2206   84.7914    9.0138 C.ar    1  UNL1        0.0312
     28 C          63.8138   84.2361   10.2745 C.ar    1  UNL1        0.1454
     29 F          65.0045   83.3264   10.2059 F       1  UNL1       -0.2040
     30 C          63.2164   84.5905   11.6040 C.ar    1  UNL1        0.0951
     31 C          62.0257   85.5002   11.6726 C.ar    1  UNL1        0.1598
     32 F          61.4283   85.8546   13.0022 F       1  UNL1       -0.2026
     33 N          60.2418   86.9653   10.4805 N.pl3   1  UNL1       -0.2166
     34 H          59.5664   86.8398   11.1858 H       1  UNL1        0.1734
     35 S          60.0801   88.0661    9.4746 S.O2    1  UNL1        0.0540
     36 O          59.0838   87.2336    8.7236 O.2     1  UNL1       -0.1545
     37 O          61.0764   88.8987   10.2256 O.2     1  UNL1       -0.1545
     38 C          59.9185   89.1671    8.4687 C.3     1  UNL1        0.1724
     39 C          59.1649   89.9540    6.1101 C.3     1  UNL1        0.0019
     40 C          59.4886   88.8460    7.0679 C.3     1  UNL1        0.0273
@<TRIPOS>BOND
     1    39    40    1
     2    40    38    1
     3    38    35    1
     4    35    36    2
     5    35    37    2
     6    35    33    1
     7    33    25    1
     8    25    26   ar
     9    26    27   ar
    10    27    28   ar
    11    28    29    1
    12    28    30   ar
    13    30    23    1
    14    23    24    2
    15    23     1    1
    16     1     2   ar
    17     2     3   ar
    18     3     4   ar
    19     4     5   ar
    20     5     6   ar
    21     6     7   ar
    22     7    11    1
    23    11    12   ar
    24    12    13   ar
    25    13    14   ar
    26    14    17    1
    27    17    18    2
    28    17    19    2
    29    17    20    1
    30    20    21    1
    31    20    22    1
    32    14    15   ar
    33    15    16   ar
    34     7     8   ar
    35     8     9   ar
    36    30    31   ar
    37    31    32    1
    38    31    25   ar
    39     9     1   ar
    40     9     4    1
    41    16    11   ar
    42    33    34    1
    43     5    10    1
