@<TRIPOS>MOLECULE
*****
 34 38 0 0 0
SMALL
GASTEIGER

@<TRIPOS>ATOM
      1 N          63.7599   86.6931   13.6302 N.3     1  UNL1       -0.1541
      2 C          63.1323   87.7195   12.7343 C.3     1  UNL1        0.0963
      3 C          63.6661   89.0654   13.1264 C.3     1  UNL1        0.0264
      4 C          64.6235   88.8708   14.2646 C.3     1  UNL1        0.0264
      5 C          64.6815   87.4046   14.5760 C.3     1  UNL1        0.0963
      6 C          64.3614   90.2484   13.7323 C.3     1  UNL1        0.0562
      7 C          65.2556   91.0496   14.6315 C.ar    1  UNL1        0.0600
      8 C          66.7401   91.0381   14.4166 C.ar    1  UNL1        0.0148
      9 C          67.6343   91.8393   15.3158 C.ar    1  UNL1        0.0028
     10 C          67.0439   92.6519   16.4299 C.ar    1  UNL1        0.0207
     11 C          65.5594   92.6633   16.6447 C.ar    1  UNL1        0.0984
     12 N          64.6653   91.8622   15.7456 N.ar    1  UNL1       -0.2481
     13 S          63.5098   85.2147   13.5878 S.O2    1  UNL1        0.0814
     14 O          62.4542   85.4232   12.5428 O.2     1  UNL1       -0.1513
     15 O          64.5655   85.0061   14.6329 O.2     1  UNL1       -0.1513
     16 C          61.2379   80.4865   14.1913 C.3     1  UNL1        0.1321
     17 N          62.2155   81.5630   13.8228 N.ar    1  UNL1       -0.3047
     18 C          63.5342   81.3596   13.1375 C.ar    1  UNL1        0.1800
     19 N          64.1795   82.7027   12.9661 N.ar    1  UNL1       -0.2042
     20 C          63.2597   83.7363   13.5454 C.ar    1  UNL1        0.2217
     21 C          62.0458   83.0319   14.0749 C.ar    1  UNL1        0.1172
     22 C          63.7887   91.3478   12.8876 C.3     1  UNL1        0.0952
     23 N          64.6916   92.3957   12.3075 N.am    1  UNL1       -0.3005
     24 C          64.6783   92.6640   10.8318 C.2     1  UNL1        0.2467
     25 O          63.7619   91.8841    9.9361 O.2     1  UNL1       -0.2701
     26 H          65.2931   92.9075   12.8954 H       1  UNL1        0.1498
     27 C          65.5812   93.7119   10.2517 C.ar    1  UNL1        0.0640
     28 C          65.0819   95.1145   10.0688 C.ar    1  UNL1        0.0062
     29 C          65.9848   96.1624    9.4887 C.ar    1  UNL1        0.0116
     30 C          67.3872   95.8078    9.0916 C.ar    1  UNL1        0.0585
     31 CL         68.2901   96.8557    8.5115 Cl      1  UNL1       -0.0822
     32 C          67.8865   94.4052    9.2745 C.ar    1  UNL1        0.0229
     33 C          66.9836   93.3573    9.8546 C.ar    1  UNL1        0.0629
     34 CL         67.4829   91.9547   10.0375 Cl      1  UNL1       -0.0821
@<TRIPOS>BOND
     1    16    17    1
     2    17    18   ar
     3    18    19   ar
     4    19    20   ar
     5    20    13    1
     6    13    14    2
     7    13    15    2
     8    13     1    1
     9     1     2    1
    10     3     2    1
    11     3     4    1
    12     4     5    1
    13     4     6    1
    14     6    22    1
    15    22    23    1
    16    23    24   am
    17    24    25    2
    18    24    27    1
    19    27    28   ar
    20    28    29   ar
    21    29    30   ar
    22    30    31    1
    23    30    32   ar
    24    32    33   ar
    25    33    34    1
    26     6     7    1
    27     7     8   ar
    28     8     9   ar
    29     9    10   ar
    30    10    11   ar
    31    11    12   ar
    32    20    21   ar
    33    21    17   ar
    34     5     1    1
    35    33    27   ar
    36    12     7   ar
    37     6     3    1
    38    23    26    1
@<TRIPOS>MOLECULE
*****
 34 38 0 0 0
SMALL
GASTEIGER

@<TRIPOS>ATOM
      1 N          61.8434   89.1366   10.8546 N.3     1  UNL1       -0.1541
      2 C          62.2924   87.9069   11.5868 C.3     1  UNL1        0.0963
      3 C          63.1247   88.3420   12.7565 C.3     1  UNL1        0.0264
      4 C          63.1899   89.8405   12.7472 C.3     1  UNL1        0.0264
      5 C          62.3980   90.3316   11.5717 C.3     1  UNL1        0.0963
      6 C          63.8968   89.0657   13.8195 C.3     1  UNL1        0.0562
      7 C          64.4956   90.1947   14.6048 C.ar    1  UNL1        0.0600
      8 C          65.8224   90.7672   14.2025 C.ar    1  UNL1        0.0148
      9 C          66.4212   91.8963   14.9879 C.ar    1  UNL1        0.0028
     10 C          65.6932   92.4527   16.1755 C.ar    1  UNL1        0.0207
     11 C          64.3665   91.8802   16.5778 C.ar    1  UNL1        0.0984
     12 N          63.7677   90.7512   15.7925 N.ar    1  UNL1       -0.2481
     13 S          60.9895   89.1661    9.6217 S.O2    1  UNL1        0.0814
     14 O          61.6197   87.8876    9.1546 O.2     1  UNL1       -0.1513
     15 O          60.3593   90.4446   10.0888 O.2     1  UNL1       -0.1513
     16 C          58.6026   90.7999    5.2041 C.3     1  UNL1        0.1321
     17 N          59.0385   89.9466    6.3583 N.ar    1  UNL1       -0.3047
     18 C          58.6048   88.5356    6.6249 C.ar    1  UNL1        0.1800
     19 N          59.2829   88.0715    7.8798 N.ar    1  UNL1       -0.2042
     20 C          60.1356   89.1956    8.3888 C.ar    1  UNL1        0.2217
     21 C          59.9846   90.3545    7.4485 C.ar    1  UNL1        0.1172
     22 C          64.3956   87.8987   14.6192 C.3     1  UNL1        0.0952
     23 N          63.8017   86.5373   14.4099 N.am    1  UNL1       -0.3005
     24 C          64.6898   85.3290   14.3745 C.2     1  UNL1        0.2467
     25 O          66.1718   85.4821   14.5484 O.2     1  UNL1       -0.2701
     26 H          62.8291   86.4369   14.2958 H       1  UNL1        0.1498
     27 C          64.0959   83.9676   14.1652 C.ar    1  UNL1        0.0640
     28 C          64.6663   83.0527   13.1222 C.ar    1  UNL1        0.0062
     29 C          64.0724   81.6913   12.9129 C.ar    1  UNL1        0.0116
     30 C          62.9080   81.2447   13.7466 C.ar    1  UNL1        0.0585
     31 CL         62.3141   79.8833   13.5372 Cl      1  UNL1       -0.0822
     32 C          62.3376   82.1596   14.7895 C.ar    1  UNL1        0.0229
     33 C          62.9315   83.5210   14.9988 C.ar    1  UNL1        0.0629
     34 CL         62.3611   84.4359   16.0417 Cl      1  UNL1       -0.0821
@<TRIPOS>BOND
     1    16    17    1
     2    17    18   ar
     3    18    19   ar
     4    19    20   ar
     5    20    13    1
     6    13    14    2
     7    13    15    2
     8    13     1    1
     9     1     2    1
    10     3     2    1
    11     3     4    1
    12     4     5    1
    13     4     6    1
    14     6    22    1
    15    22    23    1
    16    23    24   am
    17    24    25    2
    18    24    27    1
    19    27    28   ar
    20    28    29   ar
    21    29    30   ar
    22    30    31    1
    23    30    32   ar
    24    32    33   ar
    25    33    34    1
    26     6     7    1
    27     7     8   ar
    28     8     9   ar
    29     9    10   ar
    30    10    11   ar
    31    11    12   ar
    32    20    21   ar
    33    21    17   ar
    34     5     1    1
    35    33    27   ar
    36    12     7   ar
    37     6     3    1
    38    23    26    1
@<TRIPOS>MOLECULE
*****
 34 38 0 0 0
SMALL
GASTEIGER

@<TRIPOS>ATOM
      1 N          62.8652   90.0724   12.2996 N.3     1  UNL1       -0.1541
      2 C          61.6989   90.6751   11.5740 C.3     1  UNL1        0.0963
      3 C          61.2770   89.7179   10.4989 C.3     1  UNL1        0.0264
      4 C          62.1826   88.5236   10.5601 C.3     1  UNL1        0.0264
      5 C          63.1641   88.7428   11.6730 C.3     1  UNL1        0.0963
      6 C          61.0908   88.5852    9.5334 C.3     1  UNL1        0.0562
      7 C          61.3103   87.2728    8.8409 C.ar    1  UNL1        0.0600
      8 C          62.6227   86.5604    8.9824 C.ar    1  UNL1        0.0148
      9 C          62.8422   85.2480    8.2899 C.ar    1  UNL1        0.0028
     10 C          61.7491   84.6481    7.4559 C.ar    1  UNL1        0.0207
     11 C          60.4368   85.3606    7.3144 C.ar    1  UNL1        0.0984
     12 N          60.2174   86.6729    8.0069 N.ar    1  UNL1       -0.2481
     13 S          63.6030   90.6908   13.4499 S.O2    1  UNL1        0.0814
     14 O          62.7573   89.9104   14.4120 O.2     1  UNL1       -0.1513
     15 O          64.4488   91.4713   12.4878 O.2     1  UNL1       -0.1513
     16 C          67.4154   92.8734   16.3797 C.3     1  UNL1        0.1321
     17 N          66.0932   92.3124   15.9469 N.ar    1  UNL1       -0.3047
     18 C          64.8594   92.2093   16.7937 C.ar    1  UNL1        0.1800
     19 N          63.7765   91.5893   15.9614 N.ar    1  UNL1       -0.2042
     20 C          64.3409   91.3093   14.6002 C.ar    1  UNL1        0.2217
     21 C          65.7727   91.7562   14.5912 C.ar    1  UNL1        0.1172
     22 C          59.9229   89.1025    8.7471 C.3     1  UNL1        0.0952
     23 N          60.1405   90.1045    7.6523 N.am    1  UNL1       -0.3005
     24 C          59.6012   89.8422    6.2774 C.2     1  UNL1        0.2467
     25 O          58.8442   88.5779    5.9974 O.2     1  UNL1       -0.2701
     26 H          60.6374   90.9343    7.8361 H       1  UNL1        0.1498
     27 C          59.8188   90.8442    5.1826 C.ar    1  UNL1        0.0640
     28 C          61.1998   91.0828    4.6479 C.ar    1  UNL1        0.0062
     29 C          61.4175   92.0848    3.5531 C.ar    1  UNL1        0.0116
     30 C          60.2541   92.8482    2.9929 C.ar    1  UNL1        0.0585
     31 CL         60.4717   93.8502    1.8980 Cl      1  UNL1       -0.0822
     32 C          58.8731   92.6096    3.5275 C.ar    1  UNL1        0.0229
     33 C          58.6554   91.6076    4.6224 C.ar    1  UNL1        0.0629
     34 CL         57.2744   91.3690    5.1571 Cl      1  UNL1       -0.0821
@<TRIPOS>BOND
     1    16    17    1
     2    17    18   ar
     3    18    19   ar
     4    19    20   ar
     5    20    13    1
     6    13    14    2
     7    13    15    2
     8    13     1    1
     9     1     2    1
    10     3     2    1
    11     3     4    1
    12     4     5    1
    13     4     6    1
    14     6    22    1
    15    22    23    1
    16    23    24   am
    17    24    25    2
    18    24    27    1
    19    27    28   ar
    20    28    29   ar
    21    29    30   ar
    22    30    31    1
    23    30    32   ar
    24    32    33   ar
    25    33    34    1
    26     6     7    1
    27     7     8   ar
    28     8     9   ar
    29     9    10   ar
    30    10    11   ar
    31    11    12   ar
    32    20    21   ar
    33    21    17   ar
    34     5     1    1
    35    33    27   ar
    36    12     7   ar
    37     6     3    1
    38    23    26    1
@<TRIPOS>MOLECULE
*****
 34 38 0 0 0
SMALL
GASTEIGER

@<TRIPOS>ATOM
      1 N          64.7722   92.2856   11.7102 N.3     1  UNL1       -0.1541
      2 C          63.5816   91.6159   11.0906 C.3     1  UNL1        0.0963
      3 C          63.1923   90.4609   11.9649 C.3     1  UNL1        0.0264
      4 C          64.1424   90.4167   13.1248 C.3     1  UNL1        0.0264
      5 C          65.1189   91.5445   12.9674 C.3     1  UNL1        0.0963
      6 C          63.0456   89.3995   13.0146 C.3     1  UNL1        0.0562
      7 C          63.3119   88.5943   14.2518 C.ar    1  UNL1        0.0600
      8 C          64.0078   87.2694   14.1491 C.ar    1  UNL1        0.0148
      9 C          64.2742   86.4642   15.3863 C.ar    1  UNL1        0.0028
     10 C          63.8445   86.9839   16.7263 C.ar    1  UNL1        0.0207
     11 C          63.1487   88.3086   16.8290 C.ar    1  UNL1        0.0984
     12 N          62.8824   89.1138   15.5918 N.ar    1  UNL1       -0.2481
     13 S          65.4902   93.4857   11.1678 S.O2    1  UNL1        0.0814
     14 O          66.0866   93.7403   12.5204 O.2     1  UNL1       -0.1513
     15 O          64.8939   93.2312    9.8152 O.2     1  UNL1       -0.1513
     16 C          67.9584   96.8002    7.8808 C.3     1  UNL1        0.1321
     17 N          67.3427   96.2093    9.1145 N.ar    1  UNL1       -0.3047
     18 C          67.2836   96.8558   10.4668 C.ar    1  UNL1        0.1800
     19 N          66.5825   95.9143   11.4004 N.ar    1  UNL1       -0.2042
     20 C          66.2083   94.6858   10.6254 C.ar    1  UNL1        0.2217
     21 C          66.6781   94.8681    9.2126 C.ar    1  UNL1        0.1172
     22 C          61.8562   88.6619   12.4747 C.3     1  UNL1        0.0952
     23 N          61.8964   88.0848   11.0908 N.am    1  UNL1       -0.3005
     24 C          61.7759   86.6029   10.8923 C.2     1  UNL1        0.2467
     25 O          61.6151   85.6982   12.0779 O.2     1  UNL1       -0.2701
     26 H          62.0020   88.6787   10.3127 H       1  UNL1        0.1498
     27 C          61.8161   86.0258    9.5084 C.ar    1  UNL1        0.0640
     28 C          63.0177   85.2520    9.0530 C.ar    1  UNL1        0.0062
     29 C          63.0579   84.6749    7.6691 C.ar    1  UNL1        0.0116
     30 C          61.8964   84.8716    6.7404 C.ar    1  UNL1        0.0585
     31 CL         61.9366   84.2945    5.3565 Cl      1  UNL1       -0.0822
     32 C          60.6948   85.6454    7.1958 C.ar    1  UNL1        0.0229
     33 C          60.6546   86.2225    8.5797 C.ar    1  UNL1        0.0629
     34 CL         59.4529   86.9963    9.0351 Cl      1  UNL1       -0.0821
@<TRIPOS>BOND
     1    16    17    1
     2    17    18   ar
     3    18    19   ar
     4    19    20   ar
     5    20    13    1
     6    13    14    2
     7    13    15    2
     8    13     1    1
     9     1     2    1
    10     3     2    1
    11     3     4    1
    12     4     5    1
    13     4     6    1
    14     6    22    1
    15    22    23    1
    16    23    24   am
    17    24    25    2
    18    24    27    1
    19    27    28   ar
    20    28    29   ar
    21    29    30   ar
    22    30    31    1
    23    30    32   ar
    24    32    33   ar
    25    33    34    1
    26     6     7    1
    27     7     8   ar
    28     8     9   ar
    29     9    10   ar
    30    10    11   ar
    31    11    12   ar
    32    20    21   ar
    33    21    17   ar
    34     5     1    1
    35    33    27   ar
    36    12     7   ar
    37     6     3    1
    38    23    26    1
@<TRIPOS>MOLECULE
*****
 34 38 0 0 0
SMALL
GASTEIGER

@<TRIPOS>ATOM
      1 N          60.5952   88.1847    8.7402 N.3     1  UNL1       -0.1541
      2 C          60.9948   88.6753   10.1002 C.3     1  UNL1        0.0963
      3 C          61.6568   87.5417   10.8258 C.3     1  UNL1        0.0264
      4 C          61.6664   86.3504    9.9143 C.3     1  UNL1        0.0264
      5 C          61.0103   86.7479    8.6253 C.3     1  UNL1        0.0963
      6 C          62.2618   86.2490   11.2873 C.3     1  UNL1        0.0562
      7 C          62.7146   84.8190   11.2698 C.ar    1  UNL1        0.0600
      8 C          63.4613   84.2833   10.0843 C.ar    1  UNL1        0.0148
      9 C          63.9141   82.8533   10.0668 C.ar    1  UNL1        0.0028
     10 C          63.6201   81.9592   11.2349 C.ar    1  UNL1        0.0207
     11 C          62.8734   82.4950   12.4203 C.ar    1  UNL1        0.0984
     12 N          62.4207   83.9249   12.4378 N.ar    1  UNL1       -0.2481
     13 S          59.9021   88.9896    7.6811 S.O2    1  UNL1        0.0814
     14 O          59.3604   87.7281    7.0768 O.2     1  UNL1       -0.1513
     15 O          60.4438   90.2512    8.2853 O.2     1  UNL1       -0.1513
     16 C          59.0211   92.2755    3.6427 C.3     1  UNL1        0.1321
     17 N          58.8042   91.3049    4.7657 N.ar    1  UNL1       -0.3047
     18 C          57.4813   90.7615    5.2183 C.ar    1  UNL1        0.1800
     19 N          57.7317   89.8281    6.3655 N.ar    1  UNL1       -0.2042
     20 C          59.2091   89.7946    6.6219 C.ar    1  UNL1        0.2217
     21 C          59.8720   90.7073    5.6332 C.ar    1  UNL1        0.1172
     22 C          62.6999   86.6441   12.6665 C.3     1  UNL1        0.0952
     23 N          63.6627   87.7794   12.8511 N.am    1  UNL1       -0.3005
     24 C          63.1512   89.1509   13.1784 C.2     1  UNL1        0.2467
     25 O          61.6768   89.3871   13.3212 O.2     1  UNL1       -0.2701
     26 H          64.6304   87.6243   12.7573 H       1  UNL1        0.1498
     27 C          64.1140   90.2862   13.3630 C.ar    1  UNL1        0.0640
     28 C          64.9030   90.4015   14.6336 C.ar    1  UNL1        0.0062
     29 C          65.8658   91.5368   14.8182 C.ar    1  UNL1        0.0116
     30 C          66.0396   92.5569   13.7322 C.ar    1  UNL1        0.0585
     31 CL         67.0024   93.6922   13.9168 Cl      1  UNL1       -0.0822
     32 C          65.2506   92.4416   12.4617 C.ar    1  UNL1        0.0229
     33 C          64.2878   91.3063   12.2771 C.ar    1  UNL1        0.0629
     34 CL         63.4988   91.1910   11.0065 Cl      1  UNL1       -0.0821
@<TRIPOS>BOND
     1    16    17    1
     2    17    18   ar
     3    18    19   ar
     4    19    20   ar
     5    20    13    1
     6    13    14    2
     7    13    15    2
     8    13     1    1
     9     1     2    1
    10     3     2    1
    11     3     4    1
    12     4     5    1
    13     4     6    1
    14     6    22    1
    15    22    23    1
    16    23    24   am
    17    24    25    2
    18    24    27    1
    19    27    28   ar
    20    28    29   ar
    21    29    30   ar
    22    30    31    1
    23    30    32   ar
    24    32    33   ar
    25    33    34    1
    26     6     7    1
    27     7     8   ar
    28     8     9   ar
    29     9    10   ar
    30    10    11   ar
    31    11    12   ar
    32    20    21   ar
    33    21    17   ar
    34     5     1    1
    35    33    27   ar
    36    12     7   ar
    37     6     3    1
    38    23    26    1
@<TRIPOS>MOLECULE
*****
 34 38 0 0 0
SMALL
GASTEIGER

@<TRIPOS>ATOM
      1 N          63.8063   86.1798   13.7807 N.3     1  UNL1       -0.1541
      2 C          63.2611   87.0593   12.6948 C.3     1  UNL1        0.0963
      3 C          63.6010   88.4802   13.0348 C.3     1  UNL1        0.0264
      4 C          64.3562   88.4788   14.3308 C.3     1  UNL1        0.0264
      5 C          64.4831   87.0570   14.7918 C.3     1  UNL1        0.0963
      6 C          64.0755   89.7737   13.6276 C.3     1  UNL1        0.0562
      7 C          64.7261   90.7333   14.5796 C.ar    1  UNL1        0.0600
      8 C          66.1618   91.1228   14.3876 C.ar    1  UNL1        0.0148
      9 C          66.8123   92.0824   15.3395 C.ar    1  UNL1        0.0028
     10 C          66.0270   92.6523   16.4834 C.ar    1  UNL1        0.0207
     11 C          64.5913   92.2627   16.6753 C.ar    1  UNL1        0.0984
     12 N          63.9408   91.3032   15.7235 N.ar    1  UNL1       -0.2481
     13 S          63.6943   84.6853   13.8444 S.O2    1  UNL1        0.0814
     14 O          65.1402   84.5935   14.2330 O.2     1  UNL1       -0.1513
     15 O          62.2484   84.7771   13.4557 O.2     1  UNL1       -0.1513
     16 C          62.4819   79.6852   12.6570 C.3     1  UNL1        0.1321
     17 N          63.0251   80.8926   13.3623 N.ar    1  UNL1       -0.3047
     18 C          63.7949   80.8897   14.6496 C.ar    1  UNL1        0.1800
     19 N          64.1393   82.3101   14.9869 N.ar    1  UNL1       -0.2042
     20 C          63.5823   83.1908   13.9080 C.ar    1  UNL1        0.2217
     21 C          62.8937   82.3148   12.9039 C.ar    1  UNL1        0.1172
     22 C          63.5690   90.7354   12.5939 C.3     1  UNL1        0.0952
     23 N          62.8976   90.2203   11.3554 N.am    1  UNL1       -0.3005
     24 C          61.4872   89.7141   11.4221 C.2     1  UNL1        0.2467
     25 O          60.7482   89.7229   12.7275 O.2     1  UNL1       -0.2701
     26 H          63.3827   90.2145   10.4987 H       1  UNL1        0.1498
     27 C          60.8158   89.1990   10.1836 C.ar    1  UNL1        0.0640
     28 C          60.4778   90.1412    9.0665 C.ar    1  UNL1        0.0062
     29 C          59.8064   89.6262    7.8281 C.ar    1  UNL1        0.0116
     30 C          59.4730   88.1687    7.7066 C.ar    1  UNL1        0.0585
     31 CL         58.8016   87.6536    6.4681 Cl      1  UNL1       -0.0822
     32 C          59.8110   87.2264    8.8237 C.ar    1  UNL1        0.0229
     33 C          60.4824   87.7415   10.0622 C.ar    1  UNL1        0.0629
     34 CL         60.8204   86.7992   11.1793 Cl      1  UNL1       -0.0821
@<TRIPOS>BOND
     1    16    17    1
     2    17    18   ar
     3    18    19   ar
     4    19    20   ar
     5    20    13    1
     6    13    14    2
     7    13    15    2
     8    13     1    1
     9     1     2    1
    10     3     2    1
    11     3     4    1
    12     4     5    1
    13     4     6    1
    14     6    22    1
    15    22    23    1
    16    23    24   am
    17    24    25    2
    18    24    27    1
    19    27    28   ar
    20    28    29   ar
    21    29    30   ar
    22    30    31    1
    23    30    32   ar
    24    32    33   ar
    25    33    34    1
    26     6     7    1
    27     7     8   ar
    28     8     9   ar
    29     9    10   ar
    30    10    11   ar
    31    11    12   ar
    32    20    21   ar
    33    21    17   ar
    34     5     1    1
    35    33    27   ar
    36    12     7   ar
    37     6     3    1
    38    23    26    1
@<TRIPOS>MOLECULE
*****
 34 38 0 0 0
SMALL
GASTEIGER

@<TRIPOS>ATOM
      1 N          63.8382   87.7825   13.8176 N.3     1  UNL1       -0.1541
      2 C          63.1848   87.6124   12.4782 C.3     1  UNL1        0.0963
      3 C          62.9488   86.1471   12.2604 C.3     1  UNL1        0.0264
      4 C          63.4564   85.4117   13.4652 C.3     1  UNL1        0.0264
      5 C          64.0060   86.4224   14.4276 C.3     1  UNL1        0.0963
      6 C          62.8449   84.6522   12.3254 C.3     1  UNL1        0.0562
      7 C          62.9682   83.2521   12.8494 C.ar    1  UNL1        0.0600
      8 C          62.6073   82.0890   11.9738 C.ar    1  UNL1        0.0148
      9 C          62.7306   80.6889   12.4978 C.ar    1  UNL1        0.0028
     10 C          63.2149   80.4521   13.8977 C.ar    1  UNL1        0.0207
     11 C          63.5758   81.6152   14.7733 C.ar    1  UNL1        0.0984
     12 N          63.4525   83.0152   14.2492 N.ar    1  UNL1       -0.2481
     13 S          64.2512   89.0841   14.4382 S.O2    1  UNL1        0.0814
     14 O          64.3527   89.7018   13.0750 O.2     1  UNL1       -0.1513
     15 O          64.1497   88.4665   15.8014 O.2     1  UNL1       -0.1513
     16 C          67.0566   93.3701   15.7194 C.3     1  UNL1        0.1321
     17 N          65.9537   92.3558   15.6476 N.ar    1  UNL1       -0.3047
     18 C          64.6461   92.4218   16.3797 C.ar    1  UNL1        0.1800
     19 N          63.8493   91.2043   16.0157 N.ar    1  UNL1       -0.2042
     20 C          64.6643   90.3858   15.0588 C.ar    1  UNL1        0.2217
     21 C          65.9649   91.0975   14.8313 C.ar    1  UNL1        0.1172
     22 C          62.1906   84.3788   11.0035 C.3     1  UNL1        0.0952
     23 N          61.3261   85.4246   10.3641 N.am    1  UNL1       -0.3005
     24 C          61.7567   86.0721    9.0814 C.2     1  UNL1        0.2467
     25 O          63.0519   85.6737    8.4381 O.2     1  UNL1       -0.2701
     26 H          60.4760   85.6861   10.7863 H       1  UNL1        0.1498
     27 C          60.8922   87.1179    8.4420 C.ar    1  UNL1        0.0640
     28 C          59.8647   86.7216    7.4235 C.ar    1  UNL1        0.0062
     29 C          59.0002   87.7674    6.7841 C.ar    1  UNL1        0.0116
     30 C          59.1632   89.2096    7.1631 C.ar    1  UNL1        0.0585
     31 CL         58.2987   90.2554    6.5237 Cl      1  UNL1       -0.0822
     32 C          60.1907   89.6059    8.1816 C.ar    1  UNL1        0.0229
     33 C          61.0552   88.5601    8.8210 C.ar    1  UNL1        0.0629
     34 CL         62.0827   88.9564    9.8394 Cl      1  UNL1       -0.0821
@<TRIPOS>BOND
     1    16    17    1
     2    17    18   ar
     3    18    19   ar
     4    19    20   ar
     5    20    13    1
     6    13    14    2
     7    13    15    2
     8    13     1    1
     9     1     2    1
    10     3     2    1
    11     3     4    1
    12     4     5    1
    13     4     6    1
    14     6    22    1
    15    22    23    1
    16    23    24   am
    17    24    25    2
    18    24    27    1
    19    27    28   ar
    20    28    29   ar
    21    29    30   ar
    22    30    31    1
    23    30    32   ar
    24    32    33   ar
    25    33    34    1
    26     6     7    1
    27     7     8   ar
    28     8     9   ar
    29     9    10   ar
    30    10    11   ar
    31    11    12   ar
    32    20    21   ar
    33    21    17   ar
    34     5     1    1
    35    33    27   ar
    36    12     7   ar
    37     6     3    1
    38    23    26    1
@<TRIPOS>MOLECULE
*****
 34 38 0 0 0
SMALL
GASTEIGER

@<TRIPOS>ATOM
      1 N          58.0756   94.6588   -2.8290 N.3     1  UNL1       -0.1541
      2 C          58.7968   94.2663   -1.5737 C.3     1  UNL1        0.0963
      3 C          60.2264   93.9841   -1.9294 C.3     1  UNL1        0.0264
      4 C          60.3888   94.2022   -3.4046 C.3     1  UNL1        0.0264
      5 C          59.0595   94.6192   -3.9606 C.3     1  UNL1        0.0963
      6 C          61.5637   93.7748   -2.5758 C.3     1  UNL1        0.0562
      7 C          62.6204   93.7055   -3.6382 C.ar    1  UNL1        0.0600
      8 C          63.6791   92.6448   -3.5750 C.ar    1  UNL1        0.0148
      9 C          64.7358   92.5756   -4.6373 C.ar    1  UNL1        0.0028
     10 C          64.7337   93.5672   -5.7629 C.ar    1  UNL1        0.0207
     11 C          63.6750   94.6278   -5.8261 C.ar    1  UNL1        0.0984
     12 N          62.6184   94.6970   -4.7638 N.ar    1  UNL1       -0.2481
     13 S          56.6252   95.0264   -2.9344 S.O2    1  UNL1        0.0814
     14 O          56.5525   95.1671   -1.4427 O.2     1  UNL1       -0.1513
     15 O          56.6979   94.8857   -4.4260 O.2     1  UNL1       -0.1513
     16 C          51.9529   96.5233   -4.8865 C.3     1  UNL1        0.1321
     17 N          53.0272   96.0821   -3.9370 N.ar    1  UNL1       -0.3047
     18 C          52.8584   95.8375   -2.4667 C.ar    1  UNL1        0.1800
     19 N          54.1857   95.4123   -1.9122 N.ar    1  UNL1       -0.2042
     20 C          55.1748   95.3941   -3.0397 C.ar    1  UNL1        0.2217
     21 C          54.4588   95.8080   -4.2911 C.ar    1  UNL1        0.1172
     22 C          62.3717   93.3714   -1.3780 C.3     1  UNL1        0.0952
     23 N          61.6972   92.7394   -0.1967 N.am    1  UNL1       -0.3005
     24 C          61.9067   93.3038    1.1772 C.2     1  UNL1        0.2467
     25 O          62.7906   94.5003    1.3696 O.2     1  UNL1       -0.2701
     26 H          61.1171   91.9541   -0.3230 H       1  UNL1        0.1498
     27 C          61.2322   92.6717    2.3586 C.ar    1  UNL1        0.0640
     28 C          59.7789   92.9340    2.6215 C.ar    1  UNL1        0.0062
     29 C          59.1045   92.3020    3.8029 C.ar    1  UNL1        0.0116
     30 C          59.8834   91.4076    4.7214 C.ar    1  UNL1        0.0585
     31 CL         59.2089   90.7756    5.9027 Cl      1  UNL1       -0.0822
     32 C          61.3367   91.1453    4.4584 C.ar    1  UNL1        0.0229
     33 C          62.0111   91.7774    3.2770 C.ar    1  UNL1        0.0629
     34 CL         63.4644   91.5151    3.0140 Cl      1  UNL1       -0.0821
@<TRIPOS>BOND
     1    16    17    1
     2    17    18   ar
     3    18    19   ar
     4    19    20   ar
     5    20    13    1
     6    13    14    2
     7    13    15    2
     8    13     1    1
     9     1     2    1
    10     3     2    1
    11     3     4    1
    12     4     5    1
    13     4     6    1
    14     6    22    1
    15    22    23    1
    16    23    24   am
    17    24    25    2
    18    24    27    1
    19    27    28   ar
    20    28    29   ar
    21    29    30   ar
    22    30    31    1
    23    30    32   ar
    24    32    33   ar
    25    33    34    1
    26     6     7    1
    27     7     8   ar
    28     8     9   ar
    29     9    10   ar
    30    10    11   ar
    31    11    12   ar
    32    20    21   ar
    33    21    17   ar
    34     5     1    1
    35    33    27   ar
    36    12     7   ar
    37     6     3    1
    38    23    26    1
@<TRIPOS>MOLECULE
*****
 34 38 0 0 0
SMALL
GASTEIGER

@<TRIPOS>ATOM
      1 N          62.2735   85.6177   11.5063 N.3     1  UNL1       -0.1541
      2 C          62.6798   86.9961   11.9361 C.3     1  UNL1        0.0963
      3 C          62.0684   87.9784   10.9815 C.3     1  UNL1        0.0264
      4 C          61.2842   87.2071    9.9617 C.3     1  UNL1        0.0264
      5 C          61.4109   85.7481   10.2860 C.3     1  UNL1        0.0963
      6 C          61.3403   88.7043    9.8894 C.3     1  UNL1        0.0562
      7 C          60.4901   88.9384    8.6759 C.ar    1  UNL1        0.0600
      8 C          59.5312   87.8803    8.2165 C.ar    1  UNL1        0.0148
      9 C          58.6810   88.1144    7.0030 C.ar    1  UNL1        0.0028
     10 C          58.7898   89.4067    6.2491 C.ar    1  UNL1        0.0207
     11 C          59.7486   90.4647    6.7086 C.ar    1  UNL1        0.0984
     12 N          60.5987   90.2306    7.9219 N.ar    1  UNL1       -0.2481
     13 S          62.6615   84.3342   12.1786 S.O2    1  UNL1        0.0814
     14 O          62.3194   84.9294   13.5123 O.2     1  UNL1       -0.1513
     15 O          63.0037   83.7390   10.8449 O.2     1  UNL1       -0.1513
     16 C          62.6576   79.3020   13.7781 C.3     1  UNL1        0.1321
     17 N          63.0478   80.7377   13.5861 N.ar    1  UNL1       -0.3047
     18 C          64.2455   81.4135   14.1850 C.ar    1  UNL1        0.1800
     19 N          64.2466   82.8430   13.7306 N.ar    1  UNL1       -0.2042
     20 C          63.0496   83.0507   12.8510 C.ar    1  UNL1        0.2217
     21 C          62.3086   81.7495   12.7617 C.ar    1  UNL1        0.1172
     22 C          61.6916   90.1202   10.2384 C.3     1  UNL1        0.0952
     23 N          62.5504   90.4068   11.4343 N.am    1  UNL1       -0.3005
     24 C          63.6991   91.3648   11.3205 C.2     1  UNL1        0.2467
     25 O          63.9888   92.0361   10.0108 O.2     1  UNL1       -0.2701
     26 H          62.3603   89.9662   12.2939 H       1  UNL1        0.1498
     27 C          64.5580   91.6514   12.5164 C.ar    1  UNL1        0.0640
     28 C          64.4496   90.7920   13.7410 C.ar    1  UNL1        0.0062
     29 C          65.3085   91.0786   14.9369 C.ar    1  UNL1        0.0116
     30 C          66.2758   92.2247   14.9082 C.ar    1  UNL1        0.0585
     31 CL         67.1347   92.5113   16.1040 Cl      1  UNL1       -0.0822
     32 C          66.3842   93.0841   13.6836 C.ar    1  UNL1        0.0229
     33 C          65.5253   92.7975   12.4877 C.ar    1  UNL1        0.0629
     34 CL         65.6337   93.6569   11.2631 Cl      1  UNL1       -0.0821
@<TRIPOS>BOND
     1    16    17    1
     2    17    18   ar
     3    18    19   ar
     4    19    20   ar
     5    20    13    1
     6    13    14    2
     7    13    15    2
     8    13     1    1
     9     1     2    1
    10     3     2    1
    11     3     4    1
    12     4     5    1
    13     4     6    1
    14     6    22    1
    15    22    23    1
    16    23    24   am
    17    24    25    2
    18    24    27    1
    19    27    28   ar
    20    28    29   ar
    21    29    30   ar
    22    30    31    1
    23    30    32   ar
    24    32    33   ar
    25    33    34    1
    26     6     7    1
    27     7     8   ar
    28     8     9   ar
    29     9    10   ar
    30    10    11   ar
    31    11    12   ar
    32    20    21   ar
    33    21    17   ar
    34     5     1    1
    35    33    27   ar
    36    12     7   ar
    37     6     3    1
    38    23    26    1
