@<TRIPOS>MOLECULE
*****
 37 40 0 0 0
SMALL
GASTEIGER

@<TRIPOS>ATOM
      1 C          63.0565   90.2407   12.4833 C.3     1  UNL1        0.2549
      2 O          63.2819   91.2658   11.4116 O.3     1  UNL1       -0.3278
      3 C          64.4880   92.1558   11.4669 C.3     1  UNL1        0.1621
      4 C          65.4688   92.0207   12.5937 C.3     1  UNL1        0.1054
      5 N          65.2435   90.9957   13.6653 N.3     1  UNL1       -0.2536
      6 C          64.0373   90.1057   13.6101 C.3     1  UNL1        0.1378
      7 C          63.8119   89.0805   14.6818 C.ar    1  UNL1       -0.0027
      8 C          63.1497   89.4742   15.9688 C.ar    1  UNL1       -0.0005
      9 C          62.9243   88.4491   17.0405 C.ar    1  UNL1        0.0294
     10 C          63.3611   87.0304   16.8251 C.ar    1  UNL1        0.1401
     11 F          63.1357   86.0053   17.8967 F       1  UNL1       -0.2042
     12 C          64.0233   86.6367   15.5380 C.ar    1  UNL1        0.0294
     13 C          64.2487   87.6618   14.4663 C.ar    1  UNL1       -0.0005
     14 O          61.8503   89.3507   12.4281 O.3     1  UNL1       -0.3272
     15 C          60.4992   89.5752   10.2204 C.3     1  UNL1        0.0371
     16 C          61.4000   88.7783   11.1167 C.3     1  UNL1        0.1401
     17 C          61.8505   87.4090   10.7018 C.ar    1  UNL1        0.0045
     18 C          62.4311   86.4706   11.7177 C.ar    1  UNL1        0.0019
     19 C          62.8816   85.1013   11.3028 C.ar    1  UNL1        0.0711
     20 C          62.7515   84.6706    9.8719 C.ar    1  UNL1        0.0077
     21 C          62.1709   85.6090    8.8560 C.ar    1  UNL1        0.0711
     22 C          61.7204   86.9783    9.2709 C.ar    1  UNL1        0.0019
     23 C          63.4621   84.1629   12.3188 C.3     1  UNL1        0.4186
     24 F          64.0427   83.2244   13.3348 F       1  UNL1       -0.1659
     25 F          64.3967   83.6168   11.2803 F       1  UNL1       -0.1659
     26 F          62.5276   84.7090   13.3573 F       1  UNL1       -0.1659
     27 C          62.0408   85.1782    7.4250 C.3     1  UNL1        0.4186
     28 F          61.9108   84.7474    5.9941 F       1  UNL1       -0.1659
     29 F          60.6913   85.8288    7.3518 F       1  UNL1       -0.1659
     30 F          63.3904   84.5277    7.4983 F       1  UNL1       -0.1659
     31 C          66.2243   90.8606   14.7922 C.3     1  UNL1        0.1982
     32 C          67.3144   91.8766   14.9635 C.2     1  UNL1        0.3874
     33 N          68.5803   91.9550   14.1628 N.2     1  UNL1        0.0769
     34 N          69.3784   93.1195   14.6701 N.am    1  UNL1        0.0819
     35 C          68.6055   93.7607   15.7844 C.2     1  UNL1        0.4954
     36 O          69.0332   94.9595   16.5779 O.2     1  UNL1       -0.2139
     37 N          67.3300   92.9926   15.9657 N.am    1  UNL1        0.0540
@<TRIPOS>BOND
     1    16    15    1
     2    16    14    1
     3     1    14    1
     4     1     2    1
     5     2     3    1
     6     3     4    1
     7     4     5    1
     8     5    31    1
     9    31    32    1
    10    32    33    1
    11    33    34    2
    12    34    35    1
    13    35    36    2
    14    35    37    1
    15     5     6    1
    16     6     7    1
    17     7     8   ar
    18     8     9   ar
    19     9    10   ar
    20    10    11    1
    21    10    12   ar
    22    12    13   ar
    23    16    17    1
    24    17    18   ar
    25    18    19   ar
    26    19    23    1
    27    23    24    1
    28    23    25    1
    29    23    26    1
    30    19    20   ar
    31    20    21   ar
    32    21    27    1
    33    27    28    1
    34    27    29    1
    35    27    30    1
    36    21    22   ar
    37     6     1    1
    38    13     7   ar
    39    22    17   ar
    40    37    32    2
@<TRIPOS>MOLECULE
*****
 37 40 0 0 0
SMALL
GASTEIGER

@<TRIPOS>ATOM
      1 C          63.0495   90.2328   12.4894 C.3     1  UNL1        0.2549
      2 O          63.2712   91.2550   11.4144 O.3     1  UNL1       -0.3278
      3 C          64.4790   92.1432   11.4616 C.3     1  UNL1        0.1621
      4 C          65.4652   92.0091   12.5839 C.3     1  UNL1        0.1054
      5 N          65.2435   90.9868   13.6590 N.3     1  UNL1       -0.2536
      6 C          64.0356   90.0986   13.6117 C.3     1  UNL1        0.1378
      7 C          63.8139   89.0763   14.6868 C.ar    1  UNL1       -0.0027
      8 C          63.1605   89.4743   15.9770 C.ar    1  UNL1       -0.0005
      9 C          62.9387   88.4521   17.0520 C.ar    1  UNL1        0.0294
     10 C          63.3704   87.0317   16.8369 C.ar    1  UNL1        0.1401
     11 F          63.1486   86.0094   17.9119 F       1  UNL1       -0.2042
     12 C          64.0238   86.6336   15.5467 C.ar    1  UNL1        0.0294
     13 C          64.2455   87.6560   14.4716 C.ar    1  UNL1       -0.0005
     14 O          61.8416   89.3445   12.4422 O.3     1  UNL1       -0.3272
     15 C          60.4633   89.5895   10.2535 C.3     1  UNL1        0.0371
     16 C          61.3738   88.7837   11.1319 C.3     1  UNL1        0.1401
     17 C          61.8167   87.4171   10.7002 C.ar    1  UNL1        0.0045
     18 C          61.6476   86.9903    9.2721 C.ar    1  UNL1        0.0019
     19 C          62.0904   85.6238    8.8403 C.ar    1  UNL1        0.0711
     20 C          62.7022   84.6840    9.8366 C.ar    1  UNL1        0.0077
     21 C          62.8713   85.1108   11.2646 C.ar    1  UNL1        0.0711
     22 C          62.4285   86.4774   11.6964 C.ar    1  UNL1        0.0019
     23 C          61.9213   85.1970    7.4123 C.3     1  UNL1        0.4186
     24 F          61.7522   84.7702    5.9843 F       1  UNL1       -0.1659
     25 F          63.3161   84.6451    7.4121 F       1  UNL1       -0.1659
     26 F          60.5265   85.7488    7.4125 F       1  UNL1       -0.1659
     27 C          63.4832   84.1710   12.2608 C.3     1  UNL1        0.4186
     28 F          64.0950   83.2313   13.2570 F       1  UNL1       -0.1659
     29 F          62.5830   84.7173   13.3291 F       1  UNL1       -0.1659
     30 F          64.3833   83.6248   11.1926 F       1  UNL1       -0.1659
     31 C          66.2296   90.8526   14.7812 C.3     1  UNL1        0.1982
     32 C          67.3153   91.8735   14.9517 C.2     1  UNL1        0.3874
     33 N          68.5869   91.9489   14.1595 N.2     1  UNL1        0.0769
     34 N          69.3776   93.1202   14.6624 N.am    1  UNL1        0.0819
     35 C          68.5947   93.7687   15.7655 C.2     1  UNL1        0.4954
     36 O          69.0129   94.9757   16.5516 O.2     1  UNL1       -0.2139
     37 N          67.3202   92.9982   15.9442 N.am    1  UNL1        0.0540
@<TRIPOS>BOND
     1    16    15    1
     2    16    14    1
     3     1    14    1
     4     1     2    1
     5     2     3    1
     6     3     4    1
     7     4     5    1
     8     5    31    1
     9    31    32    1
    10    32    33    1
    11    33    34    2
    12    34    35    1
    13    35    36    2
    14    35    37    1
    15     5     6    1
    16     6     7    1
    17     7     8   ar
    18     8     9   ar
    19     9    10   ar
    20    10    11    1
    21    10    12   ar
    22    12    13   ar
    23    16    17    1
    24    17    18   ar
    25    18    19   ar
    26    19    23    1
    27    23    24    1
    28    23    25    1
    29    23    26    1
    30    19    20   ar
    31    20    21   ar
    32    21    27    1
    33    27    28    1
    34    27    29    1
    35    27    30    1
    36    21    22   ar
    37     6     1    1
    38    13     7   ar
    39    22    17   ar
    40    37    32    2
@<TRIPOS>MOLECULE
*****
 37 40 0 0 0
SMALL
GASTEIGER

@<TRIPOS>ATOM
      1 C          63.0280   88.5413   12.9234 C.3     1  UNL1        0.2549
      2 O          63.9018   88.5285   14.1425 O.3     1  UNL1       -0.3278
      3 C          64.4549   87.2319   14.6552 C.3     1  UNL1        0.1621
      4 C          64.1344   85.9481   13.9487 C.3     1  UNL1        0.1054
      5 N          63.2606   85.9609   12.7295 N.3     1  UNL1       -0.2536
      6 C          62.7075   87.2575   12.2169 C.3     1  UNL1        0.1378
      7 C          61.8337   87.2703   10.9976 C.ar    1  UNL1       -0.0027
      8 C          62.3493   86.7230    9.6997 C.ar    1  UNL1       -0.0005
      9 C          61.4756   86.7358    8.4805 C.ar    1  UNL1        0.0294
     10 C          60.0863   87.2960    8.5592 C.ar    1  UNL1        0.1401
     11 F          59.2126   87.3088    7.3400 F       1  UNL1       -0.2042
     12 C          59.5707   87.8432    9.8572 C.ar    1  UNL1        0.0294
     13 C          60.4445   87.8304   11.0764 C.ar    1  UNL1       -0.0005
     14 O          62.4748   89.8379   12.4106 O.3     1  UNL1       -0.3272
     15 C          62.8706   90.5461    9.9425 C.3     1  UNL1        0.0371
     16 C          63.2413   90.6303   11.3935 C.3     1  UNL1        0.1401
     17 C          64.3785   91.5070   11.8274 C.ar    1  UNL1        0.0045
     18 C          64.7277   91.6174   13.2820 C.ar    1  UNL1        0.0019
     19 C          65.8648   92.4940   13.7160 C.ar    1  UNL1        0.0711
     20 C          66.6529   93.2602   12.6953 C.ar    1  UNL1        0.0077
     21 C          66.3037   93.1498   11.2407 C.ar    1  UNL1        0.0711
     22 C          65.1666   92.2732   10.8067 C.ar    1  UNL1        0.0019
     23 C          66.2140   92.6043   15.1706 C.3     1  UNL1        0.4186
     24 F          66.5631   92.7147   16.6252 F       1  UNL1       -0.1659
     25 F          67.0411   93.8214   14.8797 F       1  UNL1       -0.1659
     26 F          65.3868   91.3873   15.4615 F       1  UNL1       -0.1659
     27 C          67.0918   93.9162   10.2200 C.3     1  UNL1        0.4186
     28 F          67.8799   94.6825    9.1994 F       1  UNL1       -0.1659
     29 F          67.4899   92.6289    9.5609 F       1  UNL1       -0.1659
     30 F          66.6937   95.2034   10.8791 F       1  UNL1       -0.1659
     31 C          62.9401   84.6771   12.0230 C.3     1  UNL1        0.1982
     32 C          62.6755   83.4310   12.8150 C.2     1  UNL1        0.3874
     33 N          62.4186   83.3625   14.2912 N.2     1  UNL1        0.0769
     34 N          62.2057   81.9237   14.6584 N.am    1  UNL1        0.0819
     35 C          62.3311   81.1030   13.4090 C.2     1  UNL1        0.4954
     36 O          62.1908   79.6126   13.3153 O.2     1  UNL1       -0.2139
     37 N          62.6215   82.0346   12.2697 N.am    1  UNL1        0.0540
@<TRIPOS>BOND
     1    16    15    1
     2    16    14    1
     3     1    14    1
     4     1     2    1
     5     2     3    1
     6     3     4    1
     7     4     5    1
     8     5    31    1
     9    31    32    1
    10    32    33    1
    11    33    34    2
    12    34    35    1
    13    35    36    2
    14    35    37    1
    15     5     6    1
    16     6     7    1
    17     7     8   ar
    18     8     9   ar
    19     9    10   ar
    20    10    11    1
    21    10    12   ar
    22    12    13   ar
    23    16    17    1
    24    17    18   ar
    25    18    19   ar
    26    19    23    1
    27    23    24    1
    28    23    25    1
    29    23    26    1
    30    19    20   ar
    31    20    21   ar
    32    21    27    1
    33    27    28    1
    34    27    29    1
    35    27    30    1
    36    21    22   ar
    37     6     1    1
    38    13     7   ar
    39    22    17   ar
    40    37    32    2
@<TRIPOS>MOLECULE
*****
 37 40 0 0 0
SMALL
GASTEIGER

@<TRIPOS>ATOM
      1 C          63.0463   88.5323   12.9421 C.3     1  UNL1        0.2549
      2 O          63.9206   88.5108   14.1607 O.3     1  UNL1       -0.3278
      3 C          64.4727   87.2104   14.6648 C.3     1  UNL1        0.1621
      4 C          64.1505   85.9315   13.9502 C.3     1  UNL1        0.1054
      5 N          63.2762   85.9530   12.7315 N.3     1  UNL1       -0.2536
      6 C          62.7241   87.2534   12.2275 C.3     1  UNL1        0.1378
      7 C          61.8497   87.2750   11.0088 C.ar    1  UNL1       -0.0027
      8 C          62.3606   86.7267    9.7095 C.ar    1  UNL1       -0.0005
      9 C          61.4863   86.7482    8.4908 C.ar    1  UNL1        0.0294
     10 C          60.1011   87.3181    8.5715 C.ar    1  UNL1        0.1401
     11 F          59.2269   87.3397    7.3528 F       1  UNL1       -0.2042
     12 C          59.5902   87.8665    9.8708 C.ar    1  UNL1        0.0294
     13 C          60.4646   87.8449   11.0895 C.ar    1  UNL1       -0.0005
     14 O          62.4942   89.8328   12.4380 O.3     1  UNL1       -0.3272
     15 C          62.8794   90.5314    9.9655 C.3     1  UNL1        0.0371
     16 C          63.2541   90.6239   11.4150 C.3     1  UNL1        0.1401
     17 C          64.3886   91.5076   11.8415 C.ar    1  UNL1        0.0045
     18 C          65.1681   92.2752   10.8152 C.ar    1  UNL1        0.0019
     19 C          66.3026   93.1589   11.2416 C.ar    1  UNL1        0.0711
     20 C          66.6577   93.2750   12.6943 C.ar    1  UNL1        0.0077
     21 C          65.8782   92.5074   13.7206 C.ar    1  UNL1        0.0711
     22 C          64.7437   91.6237   13.2942 C.ar    1  UNL1        0.0019
     23 C          67.0821   93.9265   10.2153 C.3     1  UNL1        0.4186
     24 F          67.8616   94.6941    9.1891 F       1  UNL1       -0.1659
     25 F          67.4691   92.6404    9.5474 F       1  UNL1       -0.1659
     26 F          66.6951   95.2126   10.8833 F       1  UNL1       -0.1659
     27 C          66.2333   92.6236   15.1734 C.3     1  UNL1        0.4186
     28 F          66.5885   92.7398   16.6261 F       1  UNL1       -0.1659
     29 F          65.3357   91.4631   15.4856 F       1  UNL1       -0.1659
     30 F          67.1310   93.7841   14.8611 F       1  UNL1       -0.1659
     31 C          62.9540   84.6741   12.0169 C.3     1  UNL1        0.1982
     32 C          62.6814   83.4249   12.8012 C.2     1  UNL1        0.3874
     33 N          62.4019   83.3513   14.2731 N.2     1  UNL1        0.0769
     34 N          62.1882   81.9107   14.6329 N.am    1  UNL1        0.0819
     35 C          62.3357   81.0941   13.3832 C.2     1  UNL1        0.4954
     36 O          62.2019   79.6035   13.2832 O.2     1  UNL1       -0.2139
     37 N          62.6405   82.0299   12.2513 N.am    1  UNL1        0.0540
@<TRIPOS>BOND
     1    16    15    1
     2    16    14    1
     3     1    14    1
     4     1     2    1
     5     2     3    1
     6     3     4    1
     7     4     5    1
     8     5    31    1
     9    31    32    1
    10    32    33    1
    11    33    34    2
    12    34    35    1
    13    35    36    2
    14    35    37    1
    15     5     6    1
    16     6     7    1
    17     7     8   ar
    18     8     9   ar
    19     9    10   ar
    20    10    11    1
    21    10    12   ar
    22    12    13   ar
    23    16    17    1
    24    17    18   ar
    25    18    19   ar
    26    19    23    1
    27    23    24    1
    28    23    25    1
    29    23    26    1
    30    19    20   ar
    31    20    21   ar
    32    21    27    1
    33    27    28    1
    34    27    29    1
    35    27    30    1
    36    21    22   ar
    37     6     1    1
    38    13     7   ar
    39    22    17   ar
    40    37    32    2
@<TRIPOS>MOLECULE
*****
 37 40 0 0 0
SMALL
GASTEIGER

@<TRIPOS>ATOM
      1 C          64.2125   89.7128   13.9015 C.3     1  UNL1        0.2549
      2 O          65.3306   90.0470   14.8439 O.3     1  UNL1       -0.3278
      3 C          66.2046   91.2368   14.5786 C.3     1  UNL1        0.1621
      4 C          65.9605   92.0924   13.3710 C.3     1  UNL1        0.1054
      5 N          64.8424   91.7582   12.4287 N.3     1  UNL1       -0.2536
      6 C          63.9684   90.5684   12.6939 C.3     1  UNL1        0.1378
      7 C          62.8502   90.2342   11.7515 C.ar    1  UNL1       -0.0027
      8 C          63.1482   89.9215   10.3150 C.ar    1  UNL1       -0.0005
      9 C          62.0301   89.5873    9.3726 C.ar    1  UNL1        0.0294
     10 C          60.6139   89.5657    9.8667 C.ar    1  UNL1        0.1401
     11 F          59.4959   89.2315    8.9243 F       1  UNL1       -0.2042
     12 C          60.3159   89.8784   11.3031 C.ar    1  UNL1        0.0294
     13 C          61.4341   90.2127   12.2455 C.ar    1  UNL1       -0.0005
     14 O          63.3384   88.5229   14.1667 O.3     1  UNL1       -0.3272
     15 C          64.9733   86.7659   15.1616 C.3     1  UNL1        0.0371
     16 C          63.9264   87.1430   14.1557 C.3     1  UNL1        0.1401
     17 C          63.4676   86.1402   13.1388 C.ar    1  UNL1        0.0045
     18 C          62.8364   86.6043   11.8597 C.ar    1  UNL1        0.0019
     19 C          62.3776   85.6017   10.8428 C.ar    1  UNL1        0.0711
     20 C          62.5499   84.1349   11.1051 C.ar    1  UNL1        0.0077
     21 C          63.1810   83.6708   12.3843 C.ar    1  UNL1        0.0711
     22 C          63.6399   84.6735   13.4012 C.ar    1  UNL1        0.0019
     23 C          61.7464   86.0657    9.5636 C.3     1  UNL1        0.4186
     24 F          61.1153   86.5298    8.2845 F       1  UNL1       -0.1659
     25 F          60.4739   86.3640   10.2997 F       1  UNL1       -0.1659
     26 F          63.0190   85.7675    8.8276 F       1  UNL1       -0.1659
     27 C          63.3533   82.2039   12.6466 C.3     1  UNL1        0.4186
     28 F          63.5257   80.7372   12.9089 F       1  UNL1       -0.1659
     29 F          62.4609   81.8909   11.4823 F       1  UNL1       -0.1659
     30 F          64.2458   82.5170   13.8108 F       1  UNL1       -0.1659
     31 C          64.5983   92.6139   11.2211 C.3     1  UNL1        0.1982
     32 C          65.6946   93.4869   10.6864 C.2     1  UNL1        0.3874
     33 N          67.0290   93.0193   10.1855 N.2     1  UNL1        0.0769
     34 N          67.8082   94.2243    9.7483 N.am    1  UNL1        0.0819
     35 C          66.9553   95.4365    9.9790 C.2     1  UNL1        0.4954
     36 O          67.3410   96.8553    9.6821 O.2     1  UNL1       -0.2139
     37 N          65.6491   94.9808   10.5588 N.am    1  UNL1        0.0540
@<TRIPOS>BOND
     1    16    15    1
     2    16    14    1
     3     1    14    1
     4     1     2    1
     5     2     3    1
     6     3     4    1
     7     4     5    1
     8     5    31    1
     9    31    32    1
    10    32    33    1
    11    33    34    2
    12    34    35    1
    13    35    36    2
    14    35    37    1
    15     5     6    1
    16     6     7    1
    17     7     8   ar
    18     8     9   ar
    19     9    10   ar
    20    10    11    1
    21    10    12   ar
    22    12    13   ar
    23    16    17    1
    24    17    18   ar
    25    18    19   ar
    26    19    23    1
    27    23    24    1
    28    23    25    1
    29    23    26    1
    30    19    20   ar
    31    20    21   ar
    32    21    27    1
    33    27    28    1
    34    27    29    1
    35    27    30    1
    36    21    22   ar
    37     6     1    1
    38    13     7   ar
    39    22    17   ar
    40    37    32    2
@<TRIPOS>MOLECULE
*****
 37 40 0 0 0
SMALL
GASTEIGER

@<TRIPOS>ATOM
      1 C          62.4830   86.1375   11.1298 C.3     1  UNL1        0.2549
      2 O          62.4325   85.9123    9.6477 O.3     1  UNL1       -0.3278
      3 C          63.0271   84.6681    9.0576 C.3     1  UNL1        0.1621
      4 C          63.6722   83.6491    9.9495 C.3     1  UNL1        0.1054
      5 N          63.7228   83.8744   11.4316 N.3     1  UNL1       -0.2536
      6 C          63.1282   85.1186   12.0218 C.3     1  UNL1        0.1378
      7 C          63.1788   85.3439   13.5039 C.ar    1  UNL1       -0.0027
      8 C          62.2092   84.6363   14.4036 C.ar    1  UNL1       -0.0005
      9 C          62.2597   84.8615   15.8857 C.ar    1  UNL1        0.0294
     10 C          63.2798   85.7944   16.4682 C.ar    1  UNL1        0.1401
     11 F          63.3303   86.0197   17.9503 F       1  UNL1       -0.2042
     12 C          64.2493   86.5020   15.5686 C.ar    1  UNL1        0.0294
     13 C          64.1988   86.2767   14.0864 C.ar    1  UNL1       -0.0005
     14 O          61.8884   87.3818   11.7201 O.3     1  UNL1       -0.3272
     15 C          61.8234   89.0887    9.7625 C.3     1  UNL1        0.0371
     16 C          62.2455   88.7246   11.1551 C.3     1  UNL1        0.1401
     17 C          63.0247   89.7034   11.9827 C.ar    1  UNL1        0.0045
     18 C          62.9845   89.6190   13.4797 C.ar    1  UNL1        0.0019
     19 C          63.7637   90.5977   14.3073 C.ar    1  UNL1        0.0711
     20 C          64.5830   91.6609   13.6378 C.ar    1  UNL1        0.0077
     21 C          64.6232   91.7453   12.1408 C.ar    1  UNL1        0.0711
     22 C          63.8440   90.7666   11.3132 C.ar    1  UNL1        0.0019
     23 C          63.7235   90.5132   15.8044 C.3     1  UNL1        0.4186
     24 F          63.6834   90.4288   17.3015 F       1  UNL1       -0.1659
     25 F          64.7479   91.6054   15.8935 F       1  UNL1       -0.1659
     26 F          62.6992   89.4211   15.7153 F       1  UNL1       -0.1659
     27 C          65.4426   92.8086   11.4713 C.3     1  UNL1        0.4186
     28 F          66.2619   93.8718   10.8018 F       1  UNL1       -0.1659
     29 F          66.2286   92.9984   12.7346 F       1  UNL1       -0.1659
     30 F          64.6565   92.6188   10.2079 F       1  UNL1       -0.1659
     31 C          64.3680   82.8554   12.3235 C.3     1  UNL1        0.1982
     32 C          63.5212   81.8619   13.0623 C.2     1  UNL1        0.3874
     33 N          64.0218   80.7896   13.9841 N.2     1  UNL1        0.0769
     34 N          62.8350   80.0312   14.5006 N.am    1  UNL1        0.0819
     35 C          61.6011   80.6349   13.8981 C.2     1  UNL1        0.4954
     36 O          60.1908   80.1860   14.1417 O.2     1  UNL1       -0.2139
     37 N          62.0251   81.7663   13.0092 N.am    1  UNL1        0.0540
@<TRIPOS>BOND
     1    16    15    1
     2    16    14    1
     3     1    14    1
     4     1     2    1
     5     2     3    1
     6     3     4    1
     7     4     5    1
     8     5    31    1
     9    31    32    1
    10    32    33    1
    11    33    34    2
    12    34    35    1
    13    35    36    2
    14    35    37    1
    15     5     6    1
    16     6     7    1
    17     7     8   ar
    18     8     9   ar
    19     9    10   ar
    20    10    11    1
    21    10    12   ar
    22    12    13   ar
    23    16    17    1
    24    17    18   ar
    25    18    19   ar
    26    19    23    1
    27    23    24    1
    28    23    25    1
    29    23    26    1
    30    19    20   ar
    31    20    21   ar
    32    21    27    1
    33    27    28    1
    34    27    29    1
    35    27    30    1
    36    21    22   ar
    37     6     1    1
    38    13     7   ar
    39    22    17   ar
    40    37    32    2
@<TRIPOS>MOLECULE
*****
 37 40 0 0 0
SMALL
GASTEIGER

@<TRIPOS>ATOM
      1 C          62.4860   86.1527   11.1288 C.3     1  UNL1        0.2549
      2 O          62.4398   85.9319    9.6459 O.3     1  UNL1       -0.3278
      3 C          63.0378   84.6903    9.0536 C.3     1  UNL1        0.1621
      4 C          63.6819   83.6696    9.9442 C.3     1  UNL1        0.1054
      5 N          63.7281   83.8904   11.4271 N.3     1  UNL1       -0.2536
      6 C          63.1301   85.1320   12.0194 C.3     1  UNL1        0.1378
      7 C          63.1763   85.3529   13.5024 C.ar    1  UNL1       -0.0027
      8 C          62.2122   84.6331   14.3982 C.ar    1  UNL1       -0.0005
      9 C          62.2584   84.8540   15.8811 C.ar    1  UNL1        0.0294
     10 C          63.2686   85.7946   16.4682 C.ar    1  UNL1        0.1401
     11 F          63.3147   86.0155   17.9512 F       1  UNL1       -0.2042
     12 C          64.2327   86.5144   15.5724 C.ar    1  UNL1        0.0294
     13 C          64.1865   86.2935   14.0894 C.ar    1  UNL1       -0.0005
     14 O          61.8880   87.3944   11.7212 O.3     1  UNL1       -0.3272
     15 C          61.8058   89.1090    9.7710 C.3     1  UNL1        0.0371
     16 C          62.2409   88.7391   11.1580 C.3     1  UNL1        0.1401
     17 C          63.0289   89.7140   11.9819 C.ar    1  UNL1        0.0045
     18 C          63.8558   90.7688   11.3084 C.ar    1  UNL1        0.0019
     19 C          64.6437   91.7436   12.1323 C.ar    1  UNL1        0.0711
     20 C          64.6049   91.6636   13.6296 C.ar    1  UNL1        0.0077
     21 C          63.7780   90.6088   14.3031 C.ar    1  UNL1        0.0711
     22 C          62.9900   89.6339   13.4793 C.ar    1  UNL1        0.0019
     23 C          65.4706   92.7985   11.4588 C.3     1  UNL1        0.4186
     24 F          66.2974   93.8534   10.7853 F       1  UNL1       -0.1659
     25 F          64.6230   92.6766   10.2272 F       1  UNL1       -0.1659
     26 F          66.3182   92.9204   12.6903 F       1  UNL1       -0.1659
     27 C          63.7392   90.5288   15.8005 C.3     1  UNL1        0.4186
     28 F          63.7003   90.4488   17.2978 F       1  UNL1       -0.1659
     29 F          62.7100   89.4409   15.7157 F       1  UNL1       -0.1659
     30 F          64.7683   91.6166   15.8853 F       1  UNL1       -0.1659
     31 C          64.3723   82.8697   12.3177 C.3     1  UNL1        0.1982
     32 C          63.5239   81.8823   13.0628 C.2     1  UNL1        0.3874
     33 N          64.0239   80.8030   13.9767 N.2     1  UNL1        0.0769
     34 N          62.8355   80.0545   14.5037 N.am    1  UNL1        0.0819
     35 C          61.6011   80.6713   13.9155 C.2     1  UNL1        0.4954
     36 O          60.1892   80.2350   14.1727 O.2     1  UNL1       -0.2139
     37 N          62.0265   81.8009   13.0251 N.am    1  UNL1        0.0540
@<TRIPOS>BOND
     1    16    15    1
     2    16    14    1
     3     1    14    1
     4     1     2    1
     5     2     3    1
     6     3     4    1
     7     4     5    1
     8     5    31    1
     9    31    32    1
    10    32    33    1
    11    33    34    2
    12    34    35    1
    13    35    36    2
    14    35    37    1
    15     5     6    1
    16     6     7    1
    17     7     8   ar
    18     8     9   ar
    19     9    10   ar
    20    10    11    1
    21    10    12   ar
    22    12    13   ar
    23    16    17    1
    24    17    18   ar
    25    18    19   ar
    26    19    23    1
    27    23    24    1
    28    23    25    1
    29    23    26    1
    30    19    20   ar
    31    20    21   ar
    32    21    27    1
    33    27    28    1
    34    27    29    1
    35    27    30    1
    36    21    22   ar
    37     6     1    1
    38    13     7   ar
    39    22    17   ar
    40    37    32    2
@<TRIPOS>MOLECULE
*****
 37 40 0 0 0
SMALL
GASTEIGER

@<TRIPOS>ATOM
      1 C          63.4965   87.6646   13.6489 C.3     1  UNL1        0.2549
      2 O          64.3125   87.0876   14.7675 O.3     1  UNL1       -0.3278
      3 C          64.6755   85.6322   14.7577 C.3     1  UNL1        0.1621
      4 C          64.2227   84.7539   13.6292 C.3     1  UNL1        0.1054
      5 N          63.4068   85.3309   12.5106 N.3     1  UNL1       -0.2536
      6 C          63.0437   86.7862   12.5205 C.3     1  UNL1        0.1378
      7 C          62.2277   87.3633   11.4018 C.ar    1  UNL1       -0.0027
      8 C          62.6059   88.6852   10.8023 C.ar    1  UNL1       -0.0005
      9 C          61.7900   89.2623    9.6837 C.ar    1  UNL1        0.0294
     10 C          60.5959   88.5174    9.1646 C.ar    1  UNL1        0.1401
     11 F          59.7800   89.0945    8.0461 F       1  UNL1       -0.2042
     12 C          60.2177   87.1955    9.7642 C.ar    1  UNL1        0.0294
     13 C          61.0337   86.6185   10.8829 C.ar    1  UNL1       -0.0005
     14 O          63.1334   89.1200   13.6588 O.3     1  UNL1       -0.3272
     15 C          63.3391   90.0579   16.0729 C.3     1  UNL1        0.0371
     16 C          63.7843   90.0487   14.6405 C.3     1  UNL1        0.1401
     17 C          64.8805   90.9682   14.1899 C.ar    1  UNL1        0.0045
     18 C          64.8282   91.5841   12.8231 C.ar    1  UNL1        0.0019
     19 C          65.9243   92.5036   12.3724 C.ar    1  UNL1        0.0711
     20 C          67.0726   92.8072   13.2885 C.ar    1  UNL1        0.0077
     21 C          67.1248   92.1913   14.6552 C.ar    1  UNL1        0.0711
     22 C          66.0288   91.2718   15.1059 C.ar    1  UNL1        0.0019
     23 C          65.8720   93.1195   11.0057 C.3     1  UNL1        0.4186
     24 F          65.8198   93.7354    9.6390 F       1  UNL1       -0.1659
     25 F          66.7177   94.2608   11.4877 F       1  UNL1       -0.1659
     26 F          65.0263   91.9782   10.5237 F       1  UNL1       -0.1659
     27 C          68.2732   92.4949   15.5713 C.3     1  UNL1        0.4186
     28 F          69.4216   92.7986   16.4872 F       1  UNL1       -0.1659
     29 F          67.3244   92.5904   16.7291 F       1  UNL1       -0.1659
     30 F          69.2220   92.3995   14.4134 F       1  UNL1       -0.1659
     31 C          62.9539   84.4526   11.3821 C.3     1  UNL1        0.1982
     32 C          62.9212   82.9632   11.5575 C.2     1  UNL1        0.3874
     33 N          63.4161   81.9481   10.5704 N.2     1  UNL1        0.0769
     34 N          63.1886   80.5849   11.1537 N.am    1  UNL1        0.0819
     35 C          62.5530   80.7577   12.5014 C.2     1  UNL1        0.4954
     36 O          62.1529   79.6544   13.4354 O.2     1  UNL1       -0.2139
     37 N          62.3877   82.2275   12.7510 N.am    1  UNL1        0.0540
@<TRIPOS>BOND
     1    16    15    1
     2    16    14    1
     3     1    14    1
     4     1     2    1
     5     2     3    1
     6     3     4    1
     7     4     5    1
     8     5    31    1
     9    31    32    1
    10    32    33    1
    11    33    34    2
    12    34    35    1
    13    35    36    2
    14    35    37    1
    15     5     6    1
    16     6     7    1
    17     7     8   ar
    18     8     9   ar
    19     9    10   ar
    20    10    11    1
    21    10    12   ar
    22    12    13   ar
    23    16    17    1
    24    17    18   ar
    25    18    19   ar
    26    19    23    1
    27    23    24    1
    28    23    25    1
    29    23    26    1
    30    19    20   ar
    31    20    21   ar
    32    21    27    1
    33    27    28    1
    34    27    29    1
    35    27    30    1
    36    21    22   ar
    37     6     1    1
    38    13     7   ar
    39    22    17   ar
    40    37    32    2
@<TRIPOS>MOLECULE
*****
 37 40 0 0 0
SMALL
GASTEIGER

@<TRIPOS>ATOM
      1 C          63.4701   87.9986   13.6923 C.3     1  UNL1        0.2549
      2 O          64.2693   87.4105   14.8171 O.3     1  UNL1       -0.3278
      3 C          64.5879   85.9448   14.8245 C.3     1  UNL1        0.1621
      4 C          64.1073   85.0671   13.7070 C.3     1  UNL1        0.1054
      5 N          63.3080   85.6552   12.5822 N.3     1  UNL1       -0.2536
      6 C          62.9894   87.1209   12.5748 C.3     1  UNL1        0.1378
      7 C          62.1902   87.7091   11.4499 C.ar    1  UNL1       -0.0027
      8 C          60.9276   87.0383   10.9961 C.ar    1  UNL1       -0.0005
      9 C          60.1284   87.6264    9.8713 C.ar    1  UNL1        0.0294
     10 C          60.5916   88.8854    9.2002 C.ar    1  UNL1        0.1401
     11 F          59.7924   89.4735    8.0754 F       1  UNL1       -0.2042
     12 C          61.8542   89.5562    9.6540 C.ar    1  UNL1        0.0294
     13 C          62.6535   88.9681   10.7789 C.ar    1  UNL1       -0.0005
     14 O          63.1514   89.4644   13.6849 O.3     1  UNL1       -0.3272
     15 C          63.4248   90.4863   16.0578 C.3     1  UNL1        0.0371
     16 C          63.8621   90.3911   14.6262 C.3     1  UNL1        0.1401
     17 C          65.0102   91.2227   14.1358 C.ar    1  UNL1        0.0045
     18 C          66.0955   91.6368   15.0847 C.ar    1  UNL1        0.0019
     19 C          67.2436   92.4684   14.5944 C.ar    1  UNL1        0.0711
     20 C          67.3063   92.8859   13.1551 C.ar    1  UNL1        0.0077
     21 C          66.2209   92.4718   12.2061 C.ar    1  UNL1        0.0711
     22 C          65.0729   91.6402   12.6964 C.ar    1  UNL1        0.0019
     23 C          68.3289   92.8825   15.5434 C.3     1  UNL1        0.4186
     24 F          69.4142   93.2965   16.4924 F       1  UNL1       -0.1659
     25 F          67.2935   93.3214   16.5360 F       1  UNL1       -0.1659
     26 F          69.3643   92.4435   14.5508 F       1  UNL1       -0.1659
     27 C          66.2837   92.8893   10.7667 C.3     1  UNL1        0.4186
     28 F          66.3464   93.3068    9.3273 F       1  UNL1       -0.1659
     29 F          64.9856   93.6244   10.9233 F       1  UNL1       -0.1659
     30 F          67.5818   92.1543   10.6101 F       1  UNL1       -0.1659
     31 C          62.8274   84.7776   11.4647 C.3     1  UNL1        0.1982
     32 C          62.8594   83.2856   11.6160 C.2     1  UNL1        0.3874
     33 N          63.4052   82.3095   10.6163 N.2     1  UNL1        0.0769
     34 N          63.2342   80.9283   11.1761 N.am    1  UNL1        0.0819
     35 C          62.5828   81.0508   12.5217 C.2     1  UNL1        0.4954
     36 O          62.2257   79.9159   13.4350 O.2     1  UNL1       -0.2139
     37 N          62.3511   82.5077   12.7936 N.am    1  UNL1        0.0540
@<TRIPOS>BOND
     1    16    15    1
     2    16    14    1
     3     1    14    1
     4     1     2    1
     5     2     3    1
     6     3     4    1
     7     4     5    1
     8     5    31    1
     9    31    32    1
    10    32    33    1
    11    33    34    2
    12    34    35    1
    13    35    36    2
    14    35    37    1
    15     5     6    1
    16     6     7    1
    17     7     8   ar
    18     8     9   ar
    19     9    10   ar
    20    10    11    1
    21    10    12   ar
    22    12    13   ar
    23    16    17    1
    24    17    18   ar
    25    18    19   ar
    26    19    23    1
    27    23    24    1
    28    23    25    1
    29    23    26    1
    30    19    20   ar
    31    20    21   ar
    32    21    27    1
    33    27    28    1
    34    27    29    1
    35    27    30    1
    36    21    22   ar
    37     6     1    1
    38    13     7   ar
    39    22    17   ar
    40    37    32    2
