@<TRIPOS>MOLECULE
*****
 23 25 0 0 0
SMALL
GASTEIGER

@<TRIPOS>ATOM
      1 C          61.4455   88.2177   10.8410 C.ar    1  UNL1       -0.0158
      2 C          62.2200   86.9851   11.2027 C.ar    1  UNL1        0.0050
      3 S          61.9870   85.9606   10.1322 S.2     1  UNL1       -0.0915
      4 C          61.0685   86.5600    9.1089 C.ar    1  UNL1        0.0288
      5 C          60.4937   86.0157    7.8348 C.ar    1  UNL1        0.0065
      6 C          59.5842   86.8665    6.9988 C.ar    1  UNL1        0.0005
      7 C          59.2495   88.2615    7.4369 C.ar    1  UNL1        0.0000
      8 C          59.8244   88.8057    8.7109 C.ar    1  UNL1        0.0002
      9 C          60.7339   87.9550    9.5469 C.ar    1  UNL1        0.0025
     10 C          60.1301   89.8768   12.3468 C.3     1  UNL1        0.0095
     11 C          61.3920   89.4898   11.6341 C.3     1  UNL1        0.0485
     12 C          62.6003   90.3749   11.7145 C.ar    1  UNL1        0.0275
     13 C          63.1430   91.0179   10.4727 C.ar    1  UNL1        0.0014
     14 C          64.3514   91.9031   10.5531 C.ar    1  UNL1        0.0205
     15 C          65.0170   92.1452   11.8753 C.ar    1  UNL1        0.1013
     16 N          64.4744   91.5022   13.1171 N.ar    1  UNL1       -0.2167
     17 C          63.2661   90.6170   13.0367 C.ar    1  UNL1        0.2185
     18 F          62.7235   89.9740   14.2785 F       1  UNL1       -0.1835
     19 C          63.0770   86.8082   12.4210 C.3     1  UNL1        0.0499
     20 C          63.2810   85.4405   13.0023 C.3     1  UNL1        0.0774
     21 N          63.3450   85.2598   14.4900 N.3     1  UNL1       -0.2700
     22 C          64.2383   86.1386   15.3145 C.3     1  UNL1        0.0897
     23 C          62.5158   84.2003   15.1531 C.3     1  UNL1        0.0897
@<TRIPOS>BOND
     1    11    10    1
     2    11    12    1
     3    12    13   ar
     4    13    14   ar
     5    14    15   ar
     6    15    16   ar
     7    16    17   ar
     8    17    18    1
     9    11     1    1
    10     1     2   ar
    11     2    19    1
    12    19    20    1
    13    20    21    1
    14    21    22    1
    15    21    23    1
    16     2     3   ar
    17     3     4   ar
    18     4     5   ar
    19     5     6   ar
    20     6     7   ar
    21     7     8   ar
    22     8     9   ar
    23    17    12   ar
    24     9     1   ar
    25     9     4   ar
@<TRIPOS>MOLECULE
*****
 23 25 0 0 0
SMALL
GASTEIGER

@<TRIPOS>ATOM
      1 C          63.4244   85.6522   12.9610 C.ar    1  UNL1       -0.0158
      2 C          62.9036   84.4989   12.1556 C.ar    1  UNL1        0.0050
      3 S          62.2226   85.0530   10.9394 S.2     1  UNL1       -0.0915
      4 C          62.3225   86.5487   10.9931 C.ar    1  UNL1        0.0288
      5 C          61.8332   87.6213   10.0658 C.ar    1  UNL1        0.0065
      6 C          62.0865   89.0642   10.3879 C.ar    1  UNL1        0.0005
      7 C          62.8293   89.4345   11.6373 C.ar    1  UNL1        0.0000
      8 C          63.3187   88.3619   12.5647 C.ar    1  UNL1        0.0002
      9 C          63.0653   86.9190   12.2426 C.ar    1  UNL1        0.0025
     10 C          65.5083   84.8738   14.3033 C.3     1  UNL1        0.0095
     11 C          64.1729   85.5556   14.2573 C.3     1  UNL1        0.0485
     12 C          63.5862   86.1407   15.5076 C.ar    1  UNL1        0.0275
     13 C          63.7900   87.5929   15.8234 C.ar    1  UNL1        0.0014
     14 C          63.2033   88.1781   17.0737 C.ar    1  UNL1        0.0205
     15 C          62.4127   87.3111   18.0083 C.ar    1  UNL1        0.1013
     16 N          62.2089   85.8590   17.6925 N.ar    1  UNL1       -0.2167
     17 C          62.7956   85.2738   16.4422 C.ar    1  UNL1        0.2185
     18 F          62.5917   83.8217   16.1265 F       1  UNL1       -0.1835
     19 C          63.0398   83.0466   12.5050 C.3     1  UNL1        0.0499
     20 C          62.2128   82.4604   13.6106 C.3     1  UNL1        0.0774
     21 N          61.7428   81.0386   13.5228 N.3     1  UNL1       -0.2700
     22 C          60.4426   80.6382   14.1547 C.3     1  UNL1        0.0897
     23 C          62.5729   80.0174   12.8032 C.3     1  UNL1        0.0897
@<TRIPOS>BOND
     1    11    10    1
     2    11    12    1
     3    12    13   ar
     4    13    14   ar
     5    14    15   ar
     6    15    16   ar
     7    16    17   ar
     8    17    18    1
     9    11     1    1
    10     1     2   ar
    11     2    19    1
    12    19    20    1
    13    20    21    1
    14    21    22    1
    15    21    23    1
    16     2     3   ar
    17     3     4   ar
    18     4     5   ar
    19     5     6   ar
    20     6     7   ar
    21     7     8   ar
    22     8     9   ar
    23    17    12   ar
    24     9     1   ar
    25     9     4   ar
@<TRIPOS>MOLECULE
*****
 23 25 0 0 0
SMALL
GASTEIGER

@<TRIPOS>ATOM
      1 C          63.3693   87.0532   12.8814 C.ar    1  UNL1       -0.0158
      2 C          63.5881   88.5213   13.0976 C.ar    1  UNL1        0.0050
      3 S          62.9212   89.2595   11.9750 S.2     1  UNL1       -0.0915
      4 C          62.2903   88.2477   11.0650 C.ar    1  UNL1        0.0288
      5 C          61.4994   88.3918    9.7987 C.ar    1  UNL1        0.0065
      6 C          60.9854   87.1723    9.0926 C.ar    1  UNL1        0.0005
      7 C          61.2623   85.8087    9.6528 C.ar    1  UNL1        0.0000
      8 C          62.0533   85.6646   10.9191 C.ar    1  UNL1        0.0002
      9 C          62.5672   86.8841   11.6252 C.ar    1  UNL1        0.0025
     10 C          64.6424   86.2728   15.0076 C.3     1  UNL1        0.0095
     11 C          63.8655   85.9482   13.7661 C.3     1  UNL1        0.0485
     12 C          63.5850   84.5185   13.4095 C.ar    1  UNL1        0.0275
     13 C          64.4116   83.8302   12.3639 C.ar    1  UNL1        0.0014
     14 C          64.1311   82.4005   12.0072 C.ar    1  UNL1        0.0205
     15 C          63.0239   81.6591   12.6961 C.ar    1  UNL1        0.1013
     16 N          62.1974   82.3473   13.7415 N.ar    1  UNL1       -0.2167
     17 C          62.4779   83.7770   14.0983 C.ar    1  UNL1        0.2185
     18 F          61.6512   84.4652   15.1438 F       1  UNL1       -0.1835
     19 C          64.3415   89.1422   14.2364 C.3     1  UNL1        0.0499
     20 C          64.0606   90.5601   14.6371 C.3     1  UNL1        0.0774
     21 N          65.0648   91.6352   14.3443 N.3     1  UNL1       -0.2700
     22 C          65.2693   92.1068   12.9350 C.3     1  UNL1        0.0897
     23 C          65.8644   92.2388   15.4606 C.3     1  UNL1        0.0897
@<TRIPOS>BOND
     1    11    10    1
     2    11    12    1
     3    12    13   ar
     4    13    14   ar
     5    14    15   ar
     6    15    16   ar
     7    16    17   ar
     8    17    18    1
     9    11     1    1
    10     1     2   ar
    11     2    19    1
    12    19    20    1
    13    20    21    1
    14    21    22    1
    15    21    23    1
    16     2     3   ar
    17     3     4   ar
    18     4     5   ar
    19     5     6   ar
    20     6     7   ar
    21     7     8   ar
    22     8     9   ar
    23    17    12   ar
    24     9     1   ar
    25     9     4   ar
@<TRIPOS>MOLECULE
*****
 23 25 0 0 0
SMALL
GASTEIGER

@<TRIPOS>ATOM
      1 C          63.4626   87.3349   13.1225 C.ar    1  UNL1       -0.0158
      2 C          63.0371   85.9862   12.6227 C.ar    1  UNL1        0.0050
      3 S          62.2909   86.1829   11.3364 S.2     1  UNL1       -0.0915
      4 C          62.2552   87.6531   11.0413 C.ar    1  UNL1        0.0288
      5 C          61.6569   88.4356    9.9101 C.ar    1  UNL1        0.0065
      6 C          61.7828   89.9300    9.8827 C.ar    1  UNL1        0.0005
      7 C          62.5070   90.6420   10.9866 C.ar    1  UNL1        0.0000
      8 C          63.1054   89.8595   12.1179 C.ar    1  UNL1        0.0002
      9 C          62.9795   88.3651   12.1452 C.ar    1  UNL1        0.0025
     10 C          65.0205   86.5049   15.0290 C.3     1  UNL1        0.0095
     11 C          64.2357   87.6058   14.3791 C.3     1  UNL1        0.0485
     12 C          64.2240   88.9775   14.9859 C.ar    1  UNL1        0.0275
     13 C          65.1090   90.0522   14.4274 C.ar    1  UNL1        0.0014
     14 C          65.0974   91.4240   15.0342 C.ar    1  UNL1        0.0205
     15 C          64.2007   91.7210   16.1994 C.ar    1  UNL1        0.1013
     16 N          63.3158   90.6464   16.7578 N.ar    1  UNL1       -0.2167
     17 C          63.3274   89.2746   16.1511 C.ar    1  UNL1        0.2185
     18 F          62.4424   88.2000   16.7096 F       1  UNL1       -0.1835
     19 C          63.3098   84.6716   13.2916 C.3     1  UNL1        0.0499
     20 C          64.2426   83.6849   12.6541 C.3     1  UNL1        0.0774
     21 N          63.7214   82.7017   11.6484 N.3     1  UNL1       -0.2700
     22 C          62.7237   81.6614   12.0639 C.3     1  UNL1        0.0897
     23 C          64.1977   82.7587   10.2272 C.3     1  UNL1        0.0897
@<TRIPOS>BOND
     1    11    10    1
     2    11    12    1
     3    12    13   ar
     4    13    14   ar
     5    14    15   ar
     6    15    16   ar
     7    16    17   ar
     8    17    18    1
     9    11     1    1
    10     1     2   ar
    11     2    19    1
    12    19    20    1
    13    20    21    1
    14    21    22    1
    15    21    23    1
    16     2     3   ar
    17     3     4   ar
    18     4     5   ar
    19     5     6   ar
    20     6     7   ar
    21     7     8   ar
    22     8     9   ar
    23    17    12   ar
    24     9     1   ar
    25     9     4   ar
@<TRIPOS>MOLECULE
*****
 23 25 0 0 0
SMALL
GASTEIGER

@<TRIPOS>ATOM
      1 C          63.5027   89.1079   12.9887 C.ar    1  UNL1       -0.0158
      2 C          63.7689   87.7109   13.4655 C.ar    1  UNL1        0.0050
      3 S          63.1084   86.7614   12.5104 S.2     1  UNL1       -0.0915
      4 C          62.4339   87.5716   11.4434 C.ar    1  UNL1        0.0288
      5 C          61.6293   87.1762   10.2408 C.ar    1  UNL1        0.0065
      6 C          61.0684   88.2310    9.3338 C.ar    1  UNL1        0.0005
      7 C          61.3121   89.6812    9.6294 C.ar    1  UNL1        0.0000
      8 C          62.1167   90.0767   10.8319 C.ar    1  UNL1        0.0002
      9 C          62.6776   89.0219   11.7389 C.ar    1  UNL1        0.0025
     10 C          63.5178   90.7124   15.0321 C.3     1  UNL1        0.0095
     11 C          63.9780   90.3696   13.6461 C.3     1  UNL1        0.0485
     12 C          64.9135   91.2884   12.9178 C.ar    1  UNL1        0.0275
     13 C          64.5062   91.8856   11.6035 C.ar    1  UNL1        0.0014
     14 C          65.4417   92.8045   10.8751 C.ar    1  UNL1        0.0205
     15 C          66.7845   93.1261   11.4610 C.ar    1  UNL1        0.1013
     16 N          67.1918   92.5289   12.7753 N.ar    1  UNL1       -0.2167
     17 C          66.2563   91.6101   13.5037 C.ar    1  UNL1        0.2185
     18 F          66.6637   91.0129   14.8180 F       1  UNL1       -0.1835
     19 C          64.5573   87.3302   14.6835 C.3     1  UNL1        0.0499
     20 C          64.4514   85.9420   15.2418 C.3     1  UNL1        0.0774
     21 N          63.2404   85.5413   16.0310 N.3     1  UNL1       -0.2700
     22 C          62.8527   86.3167   17.2551 C.3     1  UNL1        0.0897
     23 C          62.4171   84.3653   15.5961 C.3     1  UNL1        0.0897
@<TRIPOS>BOND
     1    11    10    1
     2    11    12    1
     3    12    13   ar
     4    13    14   ar
     5    14    15   ar
     6    15    16   ar
     7    16    17   ar
     8    17    18    1
     9    11     1    1
    10     1     2   ar
    11     2    19    1
    12    19    20    1
    13    20    21    1
    14    21    22    1
    15    21    23    1
    16     2     3   ar
    17     3     4   ar
    18     4     5   ar
    19     5     6   ar
    20     6     7   ar
    21     7     8   ar
    22     8     9   ar
    23    17    12   ar
    24     9     1   ar
    25     9     4   ar
@<TRIPOS>MOLECULE
*****
 23 25 0 0 0
SMALL
GASTEIGER

@<TRIPOS>ATOM
      1 C          61.1543   88.6221   10.3152 C.ar    1  UNL1       -0.0158
      2 C          60.5490   88.4213    8.9576 C.ar    1  UNL1        0.0050
      3 S          60.7999   87.0015    8.5437 S.2     1  UNL1       -0.0915
      4 C          61.5602   86.3249    9.6456 C.ar    1  UNL1        0.0288
      5 C          62.0814   84.9262    9.7934 C.ar    1  UNL1        0.0065
      6 C          62.8216   84.5291   11.0361 C.ar    1  UNL1        0.0005
      7 C          63.0407   85.5307   12.1310 C.ar    1  UNL1        0.0000
      8 C          62.5195   86.9294   11.9832 C.ar    1  UNL1        0.0002
      9 C          61.7793   87.3265   10.7405 C.ar    1  UNL1        0.0025
     10 C          59.8390   90.4399   11.6251 C.3     1  UNL1        0.0095
     11 C          61.1376   89.8951   11.1085 C.3     1  UNL1        0.0485
     12 C          62.4194   90.6234   11.3850 C.ar    1  UNL1        0.0275
     13 C          63.1486   91.3090   10.2677 C.ar    1  UNL1        0.0014
     14 C          64.4304   92.0373   10.5443 C.ar    1  UNL1        0.0205
     15 C          64.9831   92.0801   11.9381 C.ar    1  UNL1        0.1013
     16 N          64.2539   91.3945   13.0554 N.ar    1  UNL1       -0.2167
     17 C          62.9720   90.6662   12.7788 C.ar    1  UNL1        0.2185
     18 F          62.2429   89.9807   13.8962 F       1  UNL1       -0.1835
     19 C          59.8207   89.4581    8.1547 C.3     1  UNL1        0.0499
     20 C          59.4241   89.1673    6.7377 C.3     1  UNL1        0.0774
     21 N          59.2502   90.2928    5.7615 N.3     1  UNL1       -0.2700
     22 C          60.4429   90.8592    5.0496 C.3     1  UNL1        0.0897
     23 C          57.8836   90.8519    5.4971 C.3     1  UNL1        0.0897
@<TRIPOS>BOND
     1    11    10    1
     2    11    12    1
     3    12    13   ar
     4    13    14   ar
     5    14    15   ar
     6    15    16   ar
     7    16    17   ar
     8    17    18    1
     9    11     1    1
    10     1     2   ar
    11     2    19    1
    12    19    20    1
    13    20    21    1
    14    21    22    1
    15    21    23    1
    16     2     3   ar
    17     3     4   ar
    18     4     5   ar
    19     5     6   ar
    20     6     7   ar
    21     7     8   ar
    22     8     9   ar
    23    17    12   ar
    24     9     1   ar
    25     9     4   ar
@<TRIPOS>MOLECULE
*****
 23 25 0 0 0
SMALL
GASTEIGER

@<TRIPOS>ATOM
      1 C          62.8342   85.2060   11.2415 C.ar    1  UNL1       -0.0158
      2 C          63.1369   86.1653   12.3541 C.ar    1  UNL1        0.0050
      3 S          62.4378   87.4582   12.0544 S.2     1  UNL1       -0.0915
      4 C          61.7031   87.2978   10.7565 C.ar    1  UNL1        0.0288
      5 C          60.8426   88.2394    9.9673 C.ar    1  UNL1        0.0065
      6 C          60.2271   87.7891    8.6757 C.ar    1  UNL1        0.0005
      7 C          60.4721   86.3971    8.1733 C.ar    1  UNL1        0.0000
      8 C          61.3326   85.4555    8.9625 C.ar    1  UNL1        0.0002
      9 C          61.9481   85.9058   10.2541 C.ar    1  UNL1        0.0025
     10 C          64.2913   83.4174   10.0463 C.3     1  UNL1        0.0095
     11 C          63.3305   83.7945   11.1349 C.3     1  UNL1        0.0485
     12 C          62.8662   82.7600   12.1167 C.ar    1  UNL1        0.0275
     13 C          62.4655   83.1684   13.5034 C.ar    1  UNL1        0.0014
     14 C          62.0011   82.1339   14.4853 C.ar    1  UNL1        0.0205
     15 C          61.9374   80.6909   14.0806 C.ar    1  UNL1        0.1013
     16 N          62.3381   80.2825   12.6940 N.ar    1  UNL1       -0.2167
     17 C          62.8025   81.3170   11.7121 C.ar    1  UNL1        0.2185
     18 F          63.2031   80.9085   10.3255 F       1  UNL1       -0.1835
     19 C          63.9891   85.8817   13.5555 C.3     1  UNL1        0.0499
     20 C          64.2655   86.9679   14.5523 C.3     1  UNL1        0.0774
     21 N          63.5621   86.9667   15.8772 N.3     1  UNL1       -0.2700
     22 C          63.1852   85.6674   16.5251 C.3     1  UNL1        0.0897
     23 C          63.2358   88.2648   16.5542 C.3     1  UNL1        0.0897
@<TRIPOS>BOND
     1    11    10    1
     2    11    12    1
     3    12    13   ar
     4    13    14   ar
     5    14    15   ar
     6    15    16   ar
     7    16    17   ar
     8    17    18    1
     9    11     1    1
    10     1     2   ar
    11     2    19    1
    12    19    20    1
    13    20    21    1
    14    21    22    1
    15    21    23    1
    16     2     3   ar
    17     3     4   ar
    18     4     5   ar
    19     5     6   ar
    20     6     7   ar
    21     7     8   ar
    22     8     9   ar
    23    17    12   ar
    24     9     1   ar
    25     9     4   ar
@<TRIPOS>MOLECULE
*****
 23 25 0 0 0
SMALL
GASTEIGER

@<TRIPOS>ATOM
      1 C          62.5868   87.0644   11.4801 C.ar    1  UNL1       -0.0158
      2 C          63.2212   87.9391   12.5204 C.ar    1  UNL1        0.0050
      3 S          63.7722   87.0529   13.5978 S.2     1  UNL1       -0.0915
      4 C          63.4784   85.6304   13.2234 C.ar    1  UNL1        0.0288
      5 C          63.7833   84.3296   13.9052 C.ar    1  UNL1        0.0065
      6 C          63.3555   83.0358   13.2781 C.ar    1  UNL1        0.0005
      7 C          62.6229   83.0430   11.9692 C.ar    1  UNL1        0.0000
      8 C          62.3179   84.3438   11.2874 C.ar    1  UNL1        0.0002
      9 C          62.7457   85.6375   11.9145 C.ar    1  UNL1        0.0025
     10 C          61.3966   88.9397   10.1321 C.3     1  UNL1        0.0095
     11 C          61.9119   87.5340   10.2255 C.3     1  UNL1        0.0485
     12 C          61.7522   86.5981    9.0643 C.ar    1  UNL1        0.0275
     13 C          62.9438   85.8664    8.5214 C.ar    1  UNL1        0.0014
     14 C          62.7842   84.9304    7.3601 C.ar    1  UNL1        0.0205
     15 C          61.4329   84.7262    6.7417 C.ar    1  UNL1        0.1013
     16 N          60.2413   85.4579    7.2846 N.ar    1  UNL1       -0.2167
     17 C          60.4009   86.3939    8.4459 C.ar    1  UNL1        0.2185
     18 F          59.2093   87.1255    8.9887 F       1  UNL1       -0.1835
     19 C          63.2921   89.4371   12.4888 C.3     1  UNL1        0.0499
     20 C          63.5215   90.2040   13.7574 C.3     1  UNL1        0.0774
     21 N          64.5680   91.2775   13.8059 N.3     1  UNL1       -0.2700
     22 C          65.2376   91.6140   15.1054 C.3     1  UNL1        0.0897
     23 C          64.9449   92.0146   12.5551 C.3     1  UNL1        0.0897
@<TRIPOS>BOND
     1    11    10    1
     2    11    12    1
     3    12    13   ar
     4    13    14   ar
     5    14    15   ar
     6    15    16   ar
     7    16    17   ar
     8    17    18    1
     9    11     1    1
    10     1     2   ar
    11     2    19    1
    12    19    20    1
    13    20    21    1
    14    21    22    1
    15    21    23    1
    16     2     3   ar
    17     3     4   ar
    18     4     5   ar
    19     5     6   ar
    20     6     7   ar
    21     7     8   ar
    22     8     9   ar
    23    17    12   ar
    24     9     1   ar
    25     9     4   ar
@<TRIPOS>MOLECULE
*****
 23 25 0 0 0
SMALL
GASTEIGER

@<TRIPOS>ATOM
      1 C          62.7075   88.5662   11.9137 C.ar    1  UNL1       -0.0158
      2 C          62.2465   87.6732   10.8001 C.ar    1  UNL1        0.0050
      3 S          62.5974   86.2607   11.1632 S.2     1  UNL1       -0.0915
      4 C          63.2752   86.2808   12.5012 C.ar    1  UNL1        0.0288
      5 C          63.8393   85.1857   13.3570 C.ar    1  UNL1        0.0065
      6 C          64.4714   85.5154   14.6767 C.ar    1  UNL1        0.0005
      7 C          64.5394   86.9403   15.1406 C.ar    1  UNL1        0.0000
      8 C          63.9754   88.0354   14.2847 C.ar    1  UNL1        0.0002
      9 C          63.3433   87.7056   12.9650 C.ar    1  UNL1        0.0025
     10 C          61.1919   90.6744   12.0068 C.3     1  UNL1        0.0095
     11 C          62.5588   90.0578   11.9667 C.3     1  UNL1        0.0485
     12 C          63.7769   90.9330   11.9797 C.ar    1  UNL1        0.0275
     13 C          64.5919   91.0656   13.2321 C.ar    1  UNL1        0.0014
     14 C          65.8100   91.9408   13.2451 C.ar    1  UNL1        0.0205
     15 C          66.2132   92.6835   12.0058 C.ar    1  UNL1        0.1013
     16 N          65.3983   92.5509   10.7535 N.ar    1  UNL1       -0.2167
     17 C          64.1801   91.6757   10.7404 C.ar    1  UNL1        0.2185
     18 F          63.3653   91.5432    9.4881 F       1  UNL1       -0.1835
     19 C          61.5559   88.1151    9.5440 C.3     1  UNL1        0.0499
     20 C          60.0700   87.9595    9.4106 C.3     1  UNL1        0.0774
     21 N          59.4465   87.8499    8.0507 N.3     1  UNL1       -0.2700
     22 C          59.3321   89.0646    7.1780 C.3     1  UNL1        0.0897
     23 C          58.9373   86.5257    7.5636 C.3     1  UNL1        0.0897
@<TRIPOS>BOND
     1    11    10    1
     2    11    12    1
     3    12    13   ar
     4    13    14   ar
     5    14    15   ar
     6    15    16   ar
     7    16    17   ar
     8    17    18    1
     9    11     1    1
    10     1     2   ar
    11     2    19    1
    12    19    20    1
    13    20    21    1
    14    21    22    1
    15    21    23    1
    16     2     3   ar
    17     3     4   ar
    18     4     5   ar
    19     5     6   ar
    20     6     7   ar
    21     7     8   ar
    22     8     9   ar
    23    17    12   ar
    24     9     1   ar
    25     9     4   ar
