@<TRIPOS>MOLECULE
*****
 35 38 0 0 0
SMALL
GASTEIGER

@<TRIPOS>ATOM
      1 C          63.6578   91.2780   16.5692 C.3     1  UNL1        0.0143
      2 C          63.9452   90.4024   15.3856 C.3     1  UNL1        0.0989
      3 C          64.2640   91.0193   14.0561 C.2     1  UNL1        0.2293
      4 O          65.4915   91.8666   13.8974 O.2     1  UNL1       -0.2745
      5 N          63.3553   90.7888   12.8851 N.am    1  UNL1       -0.2792
      6 C          63.6741   91.4057   11.5555 C.3     1  UNL1        0.0951
      7 C          62.7654   91.1752   10.3846 C.3     1  UNL1        0.0410
      8 C          61.5379   90.3278   10.5433 C.3     1  UNL1        0.0724
      9 C          61.2191   89.7109   11.8728 C.3     1  UNL1        0.0410
     10 C          62.1278   89.9414   13.0437 C.3     1  UNL1        0.0951
     11 N          60.6291   90.0974    9.3723 N.pl3   1  UNL1       -0.3339
     12 H          60.1125   90.8458    8.9953 H       1  UNL1        0.1468
     13 C          60.5076   88.7265    8.7756 C.ar    1  UNL1        0.0447
     14 C          59.3985   88.4235    7.8123 C.ar    1  UNL1        0.0166
     15 C          59.2771   87.0525    7.2156 C.ar    1  UNL1        0.0309
     16 C          60.2647   85.9848    7.5823 C.ar    1  UNL1        0.1402
     17 F          60.1432   84.6140    6.9856 F       1  UNL1       -0.2042
     18 C          61.3738   86.2879    8.5456 C.ar    1  UNL1        0.0309
     19 C          61.4953   87.6587    9.1423 C.ar    1  UNL1        0.0166
     20 C          63.9138   88.9098   15.5317 C.ar    1  UNL1       -0.0139
     21 C          64.5928   88.0422   14.5139 C.ar    1  UNL1       -0.0041
     22 C          64.5614   86.5496   14.6600 C.ar    1  UNL1       -0.0032
     23 C          63.8510   85.9248   15.8240 C.ar    1  UNL1       -0.0062
     24 C          63.1719   86.7925   16.8419 C.ar    1  UNL1       -0.0032
     25 C          63.2034   88.2850   16.6958 C.ar    1  UNL1       -0.0041
     26 C          63.8195   84.4322   15.9701 C.3     1  UNL1        0.0992
     27 N          63.4285   83.5726   14.8047 N.3     1  UNL1       -0.2666
     28 C          62.3065   82.5867   14.9431 C.3     1  UNL1        0.0882
     29 C          61.9155   81.7271   13.7777 C.3     1  UNL1        0.0702
     30 C          60.7935   80.7412   13.9161 C.3     1  UNL1        0.0186
     31 N          62.6465   81.8534   12.4739 N.3     1  UNL1       -0.2974
     32 C          63.7684   82.8392   12.3356 C.3     1  UNL1        0.0702
     33 C          64.4994   82.9655   11.0318 C.3     1  UNL1        0.0186
     34 C          64.1595   83.6989   13.5010 C.3     1  UNL1        0.0882
     35 H          61.9510   82.0978   11.7690 H       1  UNL1        0.1232
@<TRIPOS>BOND
     1     1     2    1
     2     2     3    1
     3     3     4    2
     4     3     5   am
     5     5     6    1
     6     6     7    1
     7     7     8    1
     8     8    11    1
     9    11    13    1
    10    13    14   ar
    11    14    15   ar
    12    15    16   ar
    13    16    17    1
    14    16    18   ar
    15    18    19   ar
    16     8     9    1
    17     9    10    1
    18     2    20    1
    19    20    21   ar
    20    21    22   ar
    21    22    23   ar
    22    23    26    1
    23    26    27    1
    24    27    28    1
    25    28    29    1
    26    29    30    1
    27    29    31    1
    28    31    32    1
    29    32    33    1
    30    32    34    1
    31    23    24   ar
    32    24    25   ar
    33    10     5    1
    34    25    20   ar
    35    19    13   ar
    36    34    27    1
    37    11    12    1
    38    31    35    1
@<TRIPOS>MOLECULE
*****
 35 38 0 0 0
SMALL
GASTEIGER

@<TRIPOS>ATOM
      1 C          63.6751   91.2568   16.5452 C.3     1  UNL1        0.0143
      2 C          63.9541   90.3682   15.3694 C.3     1  UNL1        0.0989
      3 C          64.2786   90.9704   14.0345 C.2     1  UNL1        0.2293
      4 O          65.5186   91.7976   13.8663 O.2     1  UNL1       -0.2745
      5 N          63.3631   90.7455   12.8677 N.am    1  UNL1       -0.2792
      6 C          63.6875   91.3478   11.5328 C.3     1  UNL1        0.0951
      7 C          62.7721   91.1228   10.3661 C.3     1  UNL1        0.0410
      8 C          61.5321   90.2957   10.5343 C.3     1  UNL1        0.0724
      9 C          61.2076   89.6934   11.8692 C.3     1  UNL1        0.0410
     10 C          62.1231   89.9183   13.0359 C.3     1  UNL1        0.0951
     11 N          60.6166   90.0708    9.3675 N.pl3   1  UNL1       -0.3339
     12 H          60.1037   90.8226    8.9922 H       1  UNL1        0.1468
     13 C          60.4826   88.7004    8.7726 C.ar    1  UNL1        0.0447
     14 C          61.4712   87.6292    9.1265 C.ar    1  UNL1        0.0166
     15 C          61.3371   86.2587    8.5315 C.ar    1  UNL1        0.0309
     16 C          60.2146   85.9595    7.5826 C.ar    1  UNL1        0.1402
     17 F          60.0807   84.5891    6.9877 F       1  UNL1       -0.2042
     18 C          59.2261   87.0307    7.2287 C.ar    1  UNL1        0.0309
     19 C          59.3600   88.4011    7.8236 C.ar    1  UNL1        0.0166
     20 C          63.9087   88.8773   15.5285 C.ar    1  UNL1       -0.0139
     21 C          64.5634   87.9939   14.5083 C.ar    1  UNL1       -0.0041
     22 C          64.5180   86.5030   14.6674 C.ar    1  UNL1       -0.0032
     23 C          63.8178   85.8956   15.8467 C.ar    1  UNL1       -0.0062
     24 C          63.1630   86.7791   16.8669 C.ar    1  UNL1       -0.0032
     25 C          63.2085   88.2699   16.7078 C.ar    1  UNL1       -0.0041
     26 C          63.7724   84.4048   16.0058 C.3     1  UNL1        0.0992
     27 N          63.3704   83.5389   14.8488 N.3     1  UNL1       -0.2666
     28 C          64.1036   83.6424   13.5442 C.3     1  UNL1        0.0882
     29 C          63.7016   82.7766   12.3873 C.3     1  UNL1        0.0702
     30 C          64.4347   82.8801   11.0828 C.3     1  UNL1        0.0186
     31 N          62.5664   81.8073   12.5347 N.3     1  UNL1       -0.2974
     32 C          61.8332   81.7038   13.8392 C.3     1  UNL1        0.0702
     33 C          60.6980   80.7344   13.9867 C.3     1  UNL1        0.0186
     34 C          62.2352   82.5696   14.9963 C.3     1  UNL1        0.0882
     35 H          62.9425   80.8806   12.3340 H       1  UNL1        0.1232
@<TRIPOS>BOND
     1     1     2    1
     2     2     3    1
     3     3     4    2
     4     3     5   am
     5     5     6    1
     6     6     7    1
     7     7     8    1
     8     8    11    1
     9    11    13    1
    10    13    14   ar
    11    14    15   ar
    12    15    16   ar
    13    16    17    1
    14    16    18   ar
    15    18    19   ar
    16     8     9    1
    17     9    10    1
    18     2    20    1
    19    20    21   ar
    20    21    22   ar
    21    22    23   ar
    22    23    26    1
    23    26    27    1
    24    27    28    1
    25    28    29    1
    26    29    30    1
    27    29    31    1
    28    31    32    1
    29    32    33    1
    30    32    34    1
    31    23    24   ar
    32    24    25   ar
    33    10     5    1
    34    25    20   ar
    35    19    13   ar
    36    34    27    1
    37    11    12    1
    38    31    35    1
@<TRIPOS>MOLECULE
*****
 35 38 0 0 0
SMALL
GASTEIGER

@<TRIPOS>ATOM
      1 C          59.3829   89.5465   11.7721 C.3     1  UNL1        0.0143
      2 C          60.6463   89.3952   10.9777 C.3     1  UNL1        0.0989
      3 C          60.6816   88.4761    9.7928 C.2     1  UNL1        0.2293
      4 O          59.9185   88.8254    8.5496 O.2     1  UNL1       -0.2745
      5 N          61.4801   87.2075    9.8511 N.am    1  UNL1       -0.2792
      6 C          61.5155   86.2884    8.6663 C.3     1  UNL1        0.0951
      7 C          62.3139   85.0200    8.7246 C.3     1  UNL1        0.0410
      8 C          63.0770   84.6706    9.9679 C.3     1  UNL1        0.0724
      9 C          63.0416   85.5897   11.1527 C.3     1  UNL1        0.0410
     10 C          62.2432   86.8582   11.0944 C.3     1  UNL1        0.0951
     11 N          63.8755   83.4021   10.0262 N.pl3   1  UNL1       -0.3339
     12 H          64.6522   83.2817    9.4334 H       1  UNL1        0.1468
     13 C          63.4904   82.3170   10.9877 C.ar    1  UNL1        0.0447
     14 C          63.1153   80.9585   10.4743 C.ar    1  UNL1        0.0166
     15 C          62.7302   79.8734   11.4359 C.ar    1  UNL1        0.0309
     16 C          62.7203   80.1470   12.9106 C.ar    1  UNL1        0.1402
     17 F          62.3353   79.0620   13.8721 F       1  UNL1       -0.2042
     18 C          63.0955   81.5056   13.4240 C.ar    1  UNL1        0.0309
     19 C          63.4805   82.5906   12.4625 C.ar    1  UNL1        0.0166
     20 C          61.8743   90.1630   11.3682 C.ar    1  UNL1       -0.0139
     21 C          62.3259   90.1785   12.7984 C.ar    1  UNL1       -0.0041
     22 C          63.5539   90.9463   13.1890 C.ar    1  UNL1       -0.0032
     23 C          64.3302   91.6987   12.1492 C.ar    1  UNL1       -0.0062
     24 C          63.8786   91.6832   10.7188 C.ar    1  UNL1       -0.0032
     25 C          62.6506   90.9154   10.3283 C.ar    1  UNL1       -0.0041
     26 C          65.5582   92.4665   12.5397 C.3     1  UNL1        0.0992
     27 N          66.3622   93.1784   11.4925 N.3     1  UNL1       -0.2666
     28 C          66.2168   94.6607   11.3141 C.3     1  UNL1        0.0882
     29 C          67.0208   95.3726   10.2669 C.3     1  UNL1        0.0702
     30 C          66.8753   96.8548   10.0886 C.3     1  UNL1        0.0186
     31 N          67.9703   94.6022    9.3980 N.3     1  UNL1       -0.2974
     32 C          68.1158   93.1200    9.5763 C.3     1  UNL1        0.0702
     33 C          69.0653   92.3497    8.7074 C.3     1  UNL1        0.0186
     34 C          67.3118   92.4081   10.6235 C.3     1  UNL1        0.0882
     35 H          68.8952   95.0081    9.5405 H       1  UNL1        0.1232
@<TRIPOS>BOND
     1     1     2    1
     2     2     3    1
     3     3     4    2
     4     3     5   am
     5     5     6    1
     6     6     7    1
     7     7     8    1
     8     8    11    1
     9    11    13    1
    10    13    14   ar
    11    14    15   ar
    12    15    16   ar
    13    16    17    1
    14    16    18   ar
    15    18    19   ar
    16     8     9    1
    17     9    10    1
    18     2    20    1
    19    20    21   ar
    20    21    22   ar
    21    22    23   ar
    22    23    26    1
    23    26    27    1
    24    27    28    1
    25    28    29    1
    26    29    30    1
    27    29    31    1
    28    31    32    1
    29    32    33    1
    30    32    34    1
    31    23    24   ar
    32    24    25   ar
    33    10     5    1
    34    25    20   ar
    35    19    13   ar
    36    34    27    1
    37    11    12    1
    38    31    35    1
@<TRIPOS>MOLECULE
*****
 35 38 0 0 0
SMALL
GASTEIGER

@<TRIPOS>ATOM
      1 C          59.3641   89.5367   11.7051 C.3     1  UNL1        0.0143
      2 C          60.6343   89.3711   10.9245 C.3     1  UNL1        0.0989
      3 C          60.6744   88.4456    9.7448 C.2     1  UNL1        0.2293
      4 O          59.9147   88.7872    8.4973 O.2     1  UNL1       -0.2745
      5 N          61.4742   87.1783    9.8126 N.am    1  UNL1       -0.2792
      6 C          61.5143   86.2528    8.6329 C.3     1  UNL1        0.0951
      7 C          62.3140   84.9856    8.7006 C.3     1  UNL1        0.0410
      8 C          63.0737   84.6440    9.9481 C.3     1  UNL1        0.0724
      9 C          63.0336   85.5695   11.1278 C.3     1  UNL1        0.0410
     10 C          62.2338   86.8367   11.0600 C.3     1  UNL1        0.0951
     11 N          63.8735   83.3768   10.0159 N.pl3   1  UNL1       -0.3339
     12 H          64.6539   83.2552    9.4281 H       1  UNL1        0.1468
     13 C          63.4842   82.2948   10.9790 C.ar    1  UNL1        0.0447
     14 C          63.4760   82.5705   12.4535 C.ar    1  UNL1        0.0166
     15 C          63.0867   81.4885   13.4167 C.ar    1  UNL1        0.0309
     16 C          62.7056   80.1308   12.9054 C.ar    1  UNL1        0.1402
     17 F          62.3164   79.0488   13.8686 F       1  UNL1       -0.2042
     18 C          62.7139   79.8550   11.4310 C.ar    1  UNL1        0.0309
     19 C          63.1031   80.9370   10.4678 C.ar    1  UNL1        0.0166
     20 C          61.8644   90.1311   11.3237 C.ar    1  UNL1       -0.0139
     21 C          62.6462   90.8881   10.2915 C.ar    1  UNL1       -0.0041
     22 C          63.8763   91.6481   10.6907 C.ar    1  UNL1       -0.0032
     23 C          64.3245   91.6511   12.1221 C.ar    1  UNL1       -0.0062
     24 C          63.5426   90.8941   13.1544 C.ar    1  UNL1       -0.0032
     25 C          62.3125   90.1341   12.7552 C.ar    1  UNL1       -0.0041
     26 C          65.5545   92.4111   12.5213 C.3     1  UNL1        0.0992
     27 N          66.3487   93.1501   11.4854 N.3     1  UNL1       -0.2666
     28 C          67.3061   92.4059   10.6024 C.3     1  UNL1        0.0882
     29 C          68.1003   93.1449    9.5665 C.3     1  UNL1        0.0702
     30 C          69.0576   92.4007    8.6836 C.3     1  UNL1        0.0186
     31 N          67.9371   94.6281    9.4135 N.3     1  UNL1       -0.2974
     32 C          66.9797   95.3723   10.2964 C.3     1  UNL1        0.0702
     33 C          66.8166   96.8556   10.1434 C.3     1  UNL1        0.0186
     34 C          66.1855   94.6333   11.3324 C.3     1  UNL1        0.0882
     35 H          67.6405   94.7941    8.4518 H       1  UNL1        0.1232
@<TRIPOS>BOND
     1     1     2    1
     2     2     3    1
     3     3     4    2
     4     3     5   am
     5     5     6    1
     6     6     7    1
     7     7     8    1
     8     8    11    1
     9    11    13    1
    10    13    14   ar
    11    14    15   ar
    12    15    16   ar
    13    16    17    1
    14    16    18   ar
    15    18    19   ar
    16     8     9    1
    17     9    10    1
    18     2    20    1
    19    20    21   ar
    20    21    22   ar
    21    22    23   ar
    22    23    26    1
    23    26    27    1
    24    27    28    1
    25    28    29    1
    26    29    30    1
    27    29    31    1
    28    31    32    1
    29    32    33    1
    30    32    34    1
    31    23    24   ar
    32    24    25   ar
    33    10     5    1
    34    25    20   ar
    35    19    13   ar
    36    34    27    1
    37    11    12    1
    38    31    35    1
@<TRIPOS>MOLECULE
*****
 35 38 0 0 0
SMALL
GASTEIGER

@<TRIPOS>ATOM
      1 C          63.5354   90.2242   16.7224 C.3     1  UNL1        0.0143
      2 C          63.4376   89.4516   15.4404 C.3     1  UNL1        0.0989
      3 C          63.1550   90.1675   14.1530 C.2     1  UNL1        0.2293
      4 O          61.8194   90.0149   13.4875 O.2     1  UNL1       -0.2745
      5 N          64.2080   91.0360   13.5310 N.am    1  UNL1       -0.2792
      6 C          63.9254   91.7519   12.2435 C.3     1  UNL1        0.0951
      7 C          64.9785   92.6204   11.6216 C.3     1  UNL1        0.0410
      8 C          66.3141   92.7730   12.2871 C.3     1  UNL1        0.0724
      9 C          66.5966   92.0570   13.5745 C.3     1  UNL1        0.0410
     10 C          65.5436   91.1886   14.1965 C.3     1  UNL1        0.0951
     11 N          67.3671   93.6415   11.6651 N.pl3   1  UNL1       -0.3339
     12 H          68.2670   93.6848   12.0620 H       1  UNL1        0.1468
     13 C          67.0490   94.4439   10.4384 C.ar    1  UNL1        0.0447
     14 C          66.1360   95.6302   10.5340 C.ar    1  UNL1        0.0166
     15 C          65.8179   96.4326    9.3072 C.ar    1  UNL1        0.0309
     16 C          66.4129   96.0488    7.9849 C.ar    1  UNL1        0.1402
     17 F          66.0948   96.8513    6.7581 F       1  UNL1       -0.2042
     18 C          67.3260   94.8626    7.8892 C.ar    1  UNL1        0.0309
     19 C          67.6441   94.0602    9.1159 C.ar    1  UNL1        0.0166
     20 C          63.6223   87.9630   15.4459 C.ar    1  UNL1       -0.0139
     21 C          64.2664   87.2828   14.2744 C.ar    1  UNL1       -0.0041
     22 C          64.4511   85.7942   14.2799 C.ar    1  UNL1       -0.0032
     23 C          63.9917   84.9858   15.4570 C.ar    1  UNL1       -0.0062
     24 C          63.3476   85.6660   16.6286 C.ar    1  UNL1       -0.0032
     25 C          63.1629   87.1546   16.6231 C.ar    1  UNL1       -0.0041
     26 C          64.1765   83.4973   15.4625 C.3     1  UNL1        0.0992
     27 N          63.4642   82.6494   14.4507 N.3     1  UNL1       -0.2666
     28 C          64.0023   82.5358   13.0551 C.3     1  UNL1        0.0882
     29 C          63.2900   81.6879   12.0434 C.3     1  UNL1        0.0702
     30 C          63.8281   81.5744   10.6478 C.3     1  UNL1        0.0186
     31 N          62.0397   80.9536   12.4271 N.3     1  UNL1       -0.2974
     32 C          61.5015   81.0671   13.8226 C.3     1  UNL1        0.0702
     33 C          60.2512   80.3327   14.2064 C.3     1  UNL1        0.0186
     34 C          62.2138   81.9150   14.8345 C.3     1  UNL1        0.0882
     35 H          62.2167   79.9631   12.2595 H       1  UNL1        0.1232
@<TRIPOS>BOND
     1     1     2    1
     2     2     3    1
     3     3     4    2
     4     3     5   am
     5     5     6    1
     6     6     7    1
     7     7     8    1
     8     8    11    1
     9    11    13    1
    10    13    14   ar
    11    14    15   ar
    12    15    16   ar
    13    16    17    1
    14    16    18   ar
    15    18    19   ar
    16     8     9    1
    17     9    10    1
    18     2    20    1
    19    20    21   ar
    20    21    22   ar
    21    22    23   ar
    22    23    26    1
    23    26    27    1
    24    27    28    1
    25    28    29    1
    26    29    30    1
    27    29    31    1
    28    31    32    1
    29    32    33    1
    30    32    34    1
    31    23    24   ar
    32    24    25   ar
    33    10     5    1
    34    25    20   ar
    35    19    13   ar
    36    34    27    1
    37    11    12    1
    38    31    35    1
@<TRIPOS>MOLECULE
*****
 35 38 0 0 0
SMALL
GASTEIGER

@<TRIPOS>ATOM
      1 C          65.3672   91.8704   15.0032 C.3     1  UNL1        0.0143
      2 C          64.2388   90.8959   14.8384 C.3     1  UNL1        0.0989
      3 C          63.7229   90.1381   16.0256 C.2     1  UNL1        0.2293
      4 O          63.1934   90.8801   17.2168 O.2     1  UNL1       -0.2745
      5 N          63.7365   88.6381   16.0217 N.am    1  UNL1       -0.2792
      6 C          63.2207   87.8802   17.2089 C.3     1  UNL1        0.0951
      7 C          63.2343   86.3803   17.2049 C.3     1  UNL1        0.0410
      8 C          63.7639   85.6383   16.0137 C.3     1  UNL1        0.0724
      9 C          64.2797   86.3961   14.8265 C.3     1  UNL1        0.0410
     10 C          64.2661   87.8960   14.8305 C.3     1  UNL1        0.0951
     11 N          63.7775   84.1383   16.0098 N.pl3   1  UNL1       -0.3339
     12 H          63.9382   83.6453   16.8466 H       1  UNL1        0.1468
     13 C          63.5464   83.3895   14.7308 C.ar    1  UNL1        0.0447
     14 C          62.3095   82.5580   14.5615 C.ar    1  UNL1        0.0166
     15 C          62.0784   81.8092   13.2824 C.ar    1  UNL1        0.0309
     16 C          63.0842   81.8920   12.1727 C.ar    1  UNL1        0.1402
     17 F          62.8530   81.1432   10.8937 F       1  UNL1       -0.2042
     18 C          64.3211   82.7235   12.3420 C.ar    1  UNL1        0.0309
     19 C          64.5522   83.4723   13.6209 C.ar    1  UNL1        0.0166
     20 C          63.6263   90.6793   13.4864 C.ar    1  UNL1       -0.0139
     21 C          64.2833   91.2507   12.2651 C.ar    1  UNL1       -0.0041
     22 C          63.6708   91.0342   10.9131 C.ar    1  UNL1       -0.0032
     23 C          62.4012   90.2461   10.7824 C.ar    1  UNL1       -0.0062
     24 C          61.7441   89.6746   12.0037 C.ar    1  UNL1       -0.0032
     25 C          62.3566   89.8912   13.3557 C.ar    1  UNL1       -0.0041
     26 C          61.7887   90.0295    9.4304 C.3     1  UNL1        0.0992
     27 N          61.4097   88.6462    8.9916 N.3     1  UNL1       -0.2666
     28 C          62.4065   87.5294    9.0875 C.3     1  UNL1        0.0882
     29 C          62.0275   86.1460    8.6488 C.3     1  UNL1        0.0702
     30 C          63.0243   85.0293    8.7447 C.3     1  UNL1        0.0186
     31 N          60.6516   85.8793    8.1141 N.3     1  UNL1       -0.2974
     32 C          59.6548   86.9960    8.0182 C.3     1  UNL1        0.0702
     33 C          58.2789   86.7294    7.4836 C.3     1  UNL1        0.0186
     34 C          60.0338   88.3795    8.4570 C.3     1  UNL1        0.0882
     35 H          60.2367   85.1648    8.7122 H       1  UNL1        0.1232
@<TRIPOS>BOND
     1     1     2    1
     2     2     3    1
     3     3     4    2
     4     3     5   am
     5     5     6    1
     6     6     7    1
     7     7     8    1
     8     8    11    1
     9    11    13    1
    10    13    14   ar
    11    14    15   ar
    12    15    16   ar
    13    16    17    1
    14    16    18   ar
    15    18    19   ar
    16     8     9    1
    17     9    10    1
    18     2    20    1
    19    20    21   ar
    20    21    22   ar
    21    22    23   ar
    22    23    26    1
    23    26    27    1
    24    27    28    1
    25    28    29    1
    26    29    30    1
    27    29    31    1
    28    31    32    1
    29    32    33    1
    30    32    34    1
    31    23    24   ar
    32    24    25   ar
    33    10     5    1
    34    25    20   ar
    35    19    13   ar
    36    34    27    1
    37    11    12    1
    38    31    35    1
@<TRIPOS>MOLECULE
*****
 35 38 0 0 0
SMALL
GASTEIGER

@<TRIPOS>ATOM
      1 C          65.3514   91.8412   14.9941 C.3     1  UNL1        0.0143
      2 C          64.2166   90.8735   14.8332 C.3     1  UNL1        0.0989
      3 C          63.7054   90.1130   16.0207 C.2     1  UNL1        0.2293
      4 O          63.1728   90.8523   17.2122 O.2     1  UNL1       -0.2745
      5 N          63.7269   88.6131   16.0167 N.am    1  UNL1       -0.2792
      6 C          63.2156   87.8526   17.2042 C.3     1  UNL1        0.0951
      7 C          63.2371   86.3528   17.2002 C.3     1  UNL1        0.0410
      8 C          63.7697   85.6135   16.0087 C.3     1  UNL1        0.0724
      9 C          64.2810   86.3740   14.8212 C.3     1  UNL1        0.0410
     10 C          64.2595   87.8738   14.8252 C.3     1  UNL1        0.0951
     11 N          63.7912   84.1136   16.0047 N.pl3   1  UNL1       -0.3339
     12 H          63.9640   83.6215   16.8397 H       1  UNL1        0.1468
     13 C          63.5492   83.3634   14.7285 C.ar    1  UNL1        0.0447
     14 C          64.5502   83.4371   13.6139 C.ar    1  UNL1        0.0166
     15 C          64.3082   82.6869   12.3376 C.ar    1  UNL1        0.0309
     16 C          63.0652   81.8630   12.1761 C.ar    1  UNL1        0.1402
     17 F          62.8232   81.1129   10.9000 F       1  UNL1       -0.2042
     18 C          62.0642   81.7893   13.2908 C.ar    1  UNL1        0.0309
     19 C          62.3061   82.5395   14.5670 C.ar    1  UNL1        0.0166
     20 C          63.5931   90.6663   13.4847 C.ar    1  UNL1       -0.0139
     21 C          62.3157   89.8900   13.3603 C.ar    1  UNL1       -0.0041
     22 C          61.6922   89.6828   12.0119 C.ar    1  UNL1       -0.0032
     23 C          62.3461   90.2520   10.7878 C.ar    1  UNL1       -0.0062
     24 C          63.6236   91.0284   10.9121 C.ar    1  UNL1       -0.0032
     25 C          64.2471   91.2356   12.2606 C.ar    1  UNL1       -0.0041
     26 C          61.7226   90.0449    9.4394 C.3     1  UNL1        0.0992
     27 N          61.3457   88.6638    8.9915 N.3     1  UNL1       -0.2666
     28 C          59.9654   88.3953    8.4691 C.3     1  UNL1        0.0882
     29 C          59.5885   87.0143    8.0212 C.3     1  UNL1        0.0702
     30 C          58.2083   86.7459    7.4988 C.3     1  UNL1        0.0186
     31 N          60.5917   85.9017    8.0958 N.3     1  UNL1       -0.2974
     32 C          61.9719   86.1701    8.6182 C.3     1  UNL1        0.0702
     33 C          62.9752   85.0575    8.6928 C.3     1  UNL1        0.0186
     34 C          62.3489   87.5512    9.0661 C.3     1  UNL1        0.0882
     35 H          60.7007   85.5395    7.1485 H       1  UNL1        0.1232
@<TRIPOS>BOND
     1     1     2    1
     2     2     3    1
     3     3     4    2
     4     3     5   am
     5     5     6    1
     6     6     7    1
     7     7     8    1
     8     8    11    1
     9    11    13    1
    10    13    14   ar
    11    14    15   ar
    12    15    16   ar
    13    16    17    1
    14    16    18   ar
    15    18    19   ar
    16     8     9    1
    17     9    10    1
    18     2    20    1
    19    20    21   ar
    20    21    22   ar
    21    22    23   ar
    22    23    26    1
    23    26    27    1
    24    27    28    1
    25    28    29    1
    26    29    30    1
    27    29    31    1
    28    31    32    1
    29    32    33    1
    30    32    34    1
    31    23    24   ar
    32    24    25   ar
    33    10     5    1
    34    25    20   ar
    35    19    13   ar
    36    34    27    1
    37    11    12    1
    38    31    35    1
@<TRIPOS>MOLECULE
*****
 35 38 0 0 0
SMALL
GASTEIGER

@<TRIPOS>ATOM
      1 C          59.4288   90.3970   11.2258 C.3     1  UNL1        0.0143
      2 C          60.6938   89.9633   10.5463 C.3     1  UNL1        0.0989
      3 C          60.6441   88.9378    9.4528 C.2     1  UNL1        0.2293
      4 O          59.8764   89.2189    8.1952 O.2     1  UNL1       -0.2745
      5 N          61.3622   87.6310    9.6169 N.am    1  UNL1       -0.2792
      6 C          61.3126   86.6055    8.5235 C.3     1  UNL1        0.0951
      7 C          62.0306   85.2988    8.6876 C.3     1  UNL1        0.0410
      8 C          62.7983   85.0177    9.9452 C.3     1  UNL1        0.0724
      9 C          62.8480   86.0433   11.0387 C.3     1  UNL1        0.0410
     10 C          62.1299   87.3499   10.8746 C.3     1  UNL1        0.0951
     11 N          63.5164   83.7110   10.1094 N.pl3   1  UNL1       -0.3339
     12 H          64.2442   83.4684    9.4924 H       1  UNL1        0.1468
     13 C          63.1256   82.7740   11.2135 C.ar    1  UNL1        0.0447
     14 C          63.1023   81.2943   10.9684 C.ar    1  UNL1        0.0166
     15 C          62.7114   80.3573   12.0727 C.ar    1  UNL1        0.0309
     16 C          62.3440   80.8999   13.4219 C.ar    1  UNL1        0.1402
     17 F          61.9532   79.9629   14.5261 F       1  UNL1       -0.2042
     18 C          62.3674   82.3796   13.6670 C.ar    1  UNL1        0.0309
     19 C          62.7582   83.3166   12.5629 C.ar    1  UNL1        0.0166
     20 C          62.0084   90.5553   10.9602 C.ar    1  UNL1       -0.0139
     21 C          62.8176   91.3470    9.9762 C.ar    1  UNL1       -0.0041
     22 C          64.1322   91.9389   10.3902 C.ar    1  UNL1       -0.0032
     23 C          64.6377   91.7392   11.7882 C.ar    1  UNL1       -0.0062
     24 C          63.8285   90.9474   12.7723 C.ar    1  UNL1       -0.0032
     25 C          62.5139   90.3555   12.3584 C.ar    1  UNL1       -0.0041
     26 C          65.9523   92.3311   12.2021 C.3     1  UNL1        0.0992
     27 N          66.2461   92.5634   13.6546 N.3     1  UNL1       -0.2666
     28 C          65.2268   92.2001   14.6934 C.3     1  UNL1        0.0882
     29 C          65.5206   92.4324   16.1459 C.3     1  UNL1        0.0702
     30 C          64.5013   92.0692   17.1847 C.3     1  UNL1        0.0186
     31 N          66.8336   93.0280   16.5596 N.3     1  UNL1       -0.2974
     32 C          67.8529   93.3913   15.5208 C.3     1  UNL1        0.0702
     33 C          69.1659   93.9869   15.9345 C.3     1  UNL1        0.0186
     34 C          67.5591   93.1590   14.0683 C.3     1  UNL1        0.0882
     35 H          67.2776   92.3560   17.1854 H       1  UNL1        0.1232
@<TRIPOS>BOND
     1     1     2    1
     2     2     3    1
     3     3     4    2
     4     3     5   am
     5     5     6    1
     6     6     7    1
     7     7     8    1
     8     8    11    1
     9    11    13    1
    10    13    14   ar
    11    14    15   ar
    12    15    16   ar
    13    16    17    1
    14    16    18   ar
    15    18    19   ar
    16     8     9    1
    17     9    10    1
    18     2    20    1
    19    20    21   ar
    20    21    22   ar
    21    22    23   ar
    22    23    26    1
    23    26    27    1
    24    27    28    1
    25    28    29    1
    26    29    30    1
    27    29    31    1
    28    31    32    1
    29    32    33    1
    30    32    34    1
    31    23    24   ar
    32    24    25   ar
    33    10     5    1
    34    25    20   ar
    35    19    13   ar
    36    34    27    1
    37    11    12    1
    38    31    35    1
@<TRIPOS>MOLECULE
*****
 35 38 0 0 0
SMALL
GASTEIGER

@<TRIPOS>ATOM
      1 C          62.6467   90.0398   12.2463 C.3     1  UNL1        0.0143
      2 C          63.5902   89.6111   13.3308 C.3     1  UNL1        0.0989
      3 C          64.3514   90.6403   14.1127 C.2     1  UNL1        0.2293
      4 O          64.4397   90.5333   15.6062 O.2     1  UNL1       -0.2745
      5 N          65.0243   91.7764   13.4010 N.am    1  UNL1       -0.2792
      6 C          65.7855   92.8056   14.1829 C.3     1  UNL1        0.0951
      7 C          66.4584   93.9416   13.4713 C.3     1  UNL1        0.0410
      8 C          66.3700   94.0486   11.9777 C.3     1  UNL1        0.0724
      9 C          65.6089   93.0195   11.1958 C.3     1  UNL1        0.0410
     10 C          64.9360   91.8834   11.9074 C.3     1  UNL1        0.0951
     11 N          67.0430   95.1848   11.2660 N.pl3   1  UNL1       -0.3339
     12 H          67.7807   95.6703   11.7011 H       1  UNL1        0.1468
     13 C          66.5919   95.5812    9.8915 C.ar    1  UNL1        0.0447
     14 C          65.3862   96.4571    9.7213 C.ar    1  UNL1        0.0166
     15 C          64.9352   96.8535    8.3466 C.ar    1  UNL1        0.0309
     16 C          65.6898   96.3739    7.1423 C.ar    1  UNL1        0.1402
     17 F          65.2388   96.7703    5.7678 F       1  UNL1       -0.2042
     18 C          66.8955   95.4979    7.3125 C.ar    1  UNL1        0.0309
     19 C          67.3466   95.1016    8.6871 C.ar    1  UNL1        0.0166
     20 C          63.7725   88.1533   13.6332 C.ar    1  UNL1       -0.0139
     21 C          63.1571   87.1189   12.7381 C.ar    1  UNL1       -0.0041
     22 C          63.3395   85.6611   13.0406 C.ar    1  UNL1       -0.0032
     23 C          64.1372   85.2376   14.2382 C.ar    1  UNL1       -0.0062
     24 C          64.7526   86.2721   15.1334 C.ar    1  UNL1       -0.0032
     25 C          64.5703   87.7299   14.8309 C.ar    1  UNL1       -0.0041
     26 C          64.3195   83.7798   14.5407 C.3     1  UNL1        0.0992
     27 N          63.5256   82.7529   13.7890 N.3     1  UNL1       -0.2666
     28 C          62.3325   82.1095   14.4313 C.3     1  UNL1        0.0882
     29 C          61.5386   81.0825   13.6796 C.3     1  UNL1        0.0702
     30 C          60.3455   80.4392   14.3219 C.3     1  UNL1        0.0186
     31 N          61.9379   80.6989   12.2855 N.3     1  UNL1       -0.2974
     32 C          63.1310   81.3422   11.6432 C.3     1  UNL1        0.0702
     33 C          63.5303   80.9586   10.2491 C.3     1  UNL1        0.0186
     34 C          63.9249   82.3692   12.3949 C.3     1  UNL1        0.0882
     35 H          61.1376   80.8970   11.6850 H       1  UNL1        0.1232
@<TRIPOS>BOND
     1     1     2    1
     2     2     3    1
     3     3     4    2
     4     3     5   am
     5     5     6    1
     6     6     7    1
     7     7     8    1
     8     8    11    1
     9    11    13    1
    10    13    14   ar
    11    14    15   ar
    12    15    16   ar
    13    16    17    1
    14    16    18   ar
    15    18    19   ar
    16     8     9    1
    17     9    10    1
    18     2    20    1
    19    20    21   ar
    20    21    22   ar
    21    22    23   ar
    22    23    26    1
    23    26    27    1
    24    27    28    1
    25    28    29    1
    26    29    30    1
    27    29    31    1
    28    31    32    1
    29    32    33    1
    30    32    34    1
    31    23    24   ar
    32    24    25   ar
    33    10     5    1
    34    25    20   ar
    35    19    13   ar
    36    34    27    1
    37    11    12    1
    38    31    35    1
