@<TRIPOS>MOLECULE
*****
 31 34 0 0 0
SMALL
GASTEIGER

@<TRIPOS>ATOM
      1 C          62.3414   90.9136    9.8610 C.3     1  UNL1        0.0518
      2 C          62.9861   90.2829   11.0597 C.ar    1  UNL1        0.0568
      3 N          62.6750   88.8596   11.4166 N.ar    1  UNL1       -0.2456
      4 C          63.3196   88.2289   12.6152 C.ar    1  UNL1        0.1319
      5 C          64.2752   89.0215   13.4569 C.ar    1  UNL1        0.0196
      6 C          64.5863   90.4448   13.1000 C.ar    1  UNL1       -0.0015
      7 C          63.9416   91.0755   11.9014 C.ar    1  UNL1        0.0068
      8 C          64.7537   88.1386   14.5712 C.3     1  UNL1        0.1226
      9 N          64.0938   86.8003   14.4181 N.am    1  UNL1       -0.2623
     10 C          63.2074   86.8561   13.2092 C.2     1  UNL1        0.2671
     11 O          62.3581   85.7358   12.6863 O.2     1  UNL1       -0.2682
     12 C          65.5420   91.2375   13.9417 C.ar    1  UNL1        0.0102
     13 C          66.8899   91.6086   13.3983 C.ar    1  UNL1        0.0017
     14 C          67.8456   92.4013   14.2399 C.ar    1  UNL1        0.0114
     15 C          67.4533   92.8228   15.6249 C.ar    1  UNL1        0.0585
     16 CL         68.4090   93.6155   16.4665 Cl      1  UNL1       -0.0822
     17 C          66.1054   92.4517   16.1684 C.ar    1  UNL1        0.0228
     18 C          65.1497   91.6590   15.3268 C.ar    1  UNL1        0.0585
     19 CL         63.8018   91.2879   15.8702 Cl      1  UNL1       -0.0822
     20 C          64.2527   92.4989   11.5444 C.3     1  UNL1        0.0934
     21 N          65.2378   92.8007   10.4543 N.3     1  UNL1       -0.3174
     22 H          66.1664   92.4894   10.7394 H       1  UNL1        0.1192
     23 H          65.2548   93.8055   10.2799 H       1  UNL1        0.1192
     24 C          64.2864   85.6144   15.3161 C.3     1  UNL1        0.1798
     25 C          63.1934   84.5972   15.4600 C.2     1  UNL1        0.2460
     26 O          62.1153   84.7945   16.4840 O.2     1  UNL1       -0.2730
     27 N          63.1784   83.3827   14.5797 N.am    1  UNL1       -0.2781
     28 C          62.1556   82.2859   14.6079 C.3     1  UNL1        0.0935
     29 C          62.5288   81.2771   13.5624 C.3     1  UNL1        0.0233
     30 C          63.7822   81.7505   12.8881 C.3     1  UNL1        0.0233
     31 C          64.1838   83.0518   13.5168 C.3     1  UNL1        0.0935
@<TRIPOS>BOND
     1     1     2    1
     2     2     3   ar
     3     3     4   ar
     4     4     5   ar
     5     5     6   ar
     6     6    12    1
     7    12    13   ar
     8    13    14   ar
     9    14    15   ar
    10    15    16    1
    11    15    17   ar
    12    17    18   ar
    13    18    19    1
    14     6     7   ar
    15     7    20    1
    16    20    21    1
    17     5     8    1
    18     8     9    1
    19     9    24    1
    20    24    25    1
    21    25    26    2
    22    25    27   am
    23    27    28    1
    24    28    29    1
    25    29    30    1
    26    30    31    1
    27     9    10   am
    28    10    11    2
    29     7     2   ar
    30    31    27    1
    31    10     4    1
    32    18    12   ar
    33    21    22    1
    34    21    23    1
@<TRIPOS>MOLECULE
*****
 31 34 0 0 0
SMALL
GASTEIGER

@<TRIPOS>ATOM
      1 C          59.7616   88.9882    7.7792 C.3     1  UNL1        0.0518
      2 C          60.6684   88.6457    8.9240 C.ar    1  UNL1        0.0568
      3 N          61.1564   89.7259    9.8432 N.ar    1  UNL1       -0.2456
      4 C          62.0632   89.3836   10.9880 C.ar    1  UNL1        0.1319
      5 C          62.4820   87.9610   11.2136 C.ar    1  UNL1        0.0196
      6 C          61.9940   86.8808   10.2944 C.ar    1  UNL1       -0.0015
      7 C          61.0872   87.2232    9.1495 C.ar    1  UNL1        0.0068
      8 C          63.3772   87.9265   12.4166 C.3     1  UNL1        0.1226
      9 N          63.5118   89.3278   12.9345 N.am    1  UNL1       -0.2623
     10 C          62.6996   90.2283   12.0516 C.2     1  UNL1        0.2671
     11 O          62.5502   91.7129   12.2054 O.2     1  UNL1       -0.2682
     12 C          62.4127   85.4581   10.5199 C.ar    1  UNL1        0.0102
     13 C          62.0471   84.7623   11.7974 C.ar    1  UNL1        0.0017
     14 C          62.4658   83.3397   12.0230 C.ar    1  UNL1        0.0114
     15 C          63.2501   82.6130   10.9710 C.ar    1  UNL1        0.0585
     16 CL         63.6688   81.1904   11.1966 Cl      1  UNL1       -0.0822
     17 C          63.6157   83.3088    9.6935 C.ar    1  UNL1        0.0228
     18 C          63.1970   84.7314    9.4679 C.ar    1  UNL1        0.0585
     19 CL         63.5626   85.4273    8.1903 Cl      1  UNL1       -0.0822
     20 C          60.5991   86.1429    8.2303 C.3     1  UNL1        0.0934
     21 N          59.1553   86.0976    7.8262 N.3     1  UNL1       -0.3174
     22 H          58.5794   85.8987    8.6442 H       1  UNL1        0.1192
     23 H          59.0202   85.3654    7.1290 H       1  UNL1        0.1192
     24 C          64.3170   89.7538   14.1262 C.3     1  UNL1        0.1798
     25 C          63.7330   89.6457   15.5036 C.2     1  UNL1        0.2460
     26 O          63.3602   90.8865   16.2596 O.2     1  UNL1       -0.2730
     27 N          63.5217   88.2969   16.1250 N.am    1  UNL1       -0.2781
     28 C          62.9506   88.0332   17.4867 C.3     1  UNL1        0.0935
     29 C          62.9203   86.5483   17.6970 C.3     1  UNL1        0.0233
     30 C          63.4727   85.8944   16.4653 C.3     1  UNL1        0.0233
     31 C          63.8444   86.9751   15.4937 C.3     1  UNL1        0.0935
@<TRIPOS>BOND
     1     1     2    1
     2     2     3   ar
     3     3     4   ar
     4     4     5   ar
     5     5     6   ar
     6     6    12    1
     7    12    13   ar
     8    13    14   ar
     9    14    15   ar
    10    15    16    1
    11    15    17   ar
    12    17    18   ar
    13    18    19    1
    14     6     7   ar
    15     7    20    1
    16    20    21    1
    17     5     8    1
    18     8     9    1
    19     9    24    1
    20    24    25    1
    21    25    26    2
    22    25    27   am
    23    27    28    1
    24    28    29    1
    25    29    30    1
    26    30    31    1
    27     9    10   am
    28    10    11    2
    29     7     2   ar
    30    31    27    1
    31    10     4    1
    32    18    12   ar
    33    21    22    1
    34    21    23    1
@<TRIPOS>MOLECULE
*****
 31 34 0 0 0
SMALL
GASTEIGER

@<TRIPOS>ATOM
      1 C          59.9441   89.3143    8.2673 C.3     1  UNL1        0.0518
      2 C          60.8526   88.8599    9.3710 C.ar    1  UNL1        0.0568
      3 N          61.4101   89.8578   10.3422 N.ar    1  UNL1       -0.2456
      4 C          62.3186   89.4035   11.4459 C.ar    1  UNL1        0.1319
      5 C          62.6697   87.9511   11.5784 C.ar    1  UNL1        0.0196
      6 C          62.1122   86.9532   10.6072 C.ar    1  UNL1       -0.0015
      7 C          61.2036   87.4076    9.5035 C.ar    1  UNL1        0.0068
      8 C          63.5831   87.8008   12.7586 C.3     1  UNL1        0.1226
      9 N          63.7966   89.1602   13.3556 N.am    1  UNL1       -0.2623
     10 C          63.0152   90.1507   12.5443 C.2     1  UNL1        0.2671
     11 O          62.9429   91.6289   12.7886 O.2     1  UNL1       -0.2682
     12 C          62.4632   85.5008   10.7395 C.ar    1  UNL1        0.0102
     13 C          62.1051   84.7537   11.9900 C.ar    1  UNL1        0.0017
     14 C          62.4560   83.3014   12.1225 C.ar    1  UNL1        0.0114
     15 C          63.1650   82.5962   11.0044 C.ar    1  UNL1        0.0585
     16 CL         63.5160   81.1439   11.1369 Cl      1  UNL1       -0.0822
     17 C          63.5231   83.3433    9.7540 C.ar    1  UNL1        0.0228
     18 C          63.1721   84.7956    9.6215 C.ar    1  UNL1        0.0585
     19 CL         63.5302   85.5427    8.3711 Cl      1  UNL1       -0.0822
     20 C          60.6461   86.4096    8.5322 C.3     1  UNL1        0.0934
     21 N          59.1755   86.3909    8.2373 N.3     1  UNL1       -0.3174
     22 H          58.6640   86.1168    9.0761 H       1  UNL1        0.1192
     23 H          58.9870   85.7222    7.4904 H       1  UNL1        0.1192
     24 C          64.6431   89.4740   14.5535 C.3     1  UNL1        0.1798
     25 C          64.6935   90.8738   15.0903 C.2     1  UNL1        0.2460
     26 O          63.4706   91.4847   15.7078 O.2     1  UNL1       -0.2730
     27 N          65.9667   91.6627   15.0097 N.am    1  UNL1       -0.2781
     28 C          66.1675   93.0655   15.5014 C.3     1  UNL1        0.0935
     29 C          67.5876   93.4570   15.2187 C.3     1  UNL1        0.0233
     30 C          68.2646   92.2961   14.5523 C.3     1  UNL1        0.0233
     31 C          67.2628   91.1871   14.4231 C.3     1  UNL1        0.0935
@<TRIPOS>BOND
     1     1     2    1
     2     2     3   ar
     3     3     4   ar
     4     4     5   ar
     5     5     6   ar
     6     6    12    1
     7    12    13   ar
     8    13    14   ar
     9    14    15   ar
    10    15    16    1
    11    15    17   ar
    12    17    18   ar
    13    18    19    1
    14     6     7   ar
    15     7    20    1
    16    20    21    1
    17     5     8    1
    18     8     9    1
    19     9    24    1
    20    24    25    1
    21    25    26    2
    22    25    27   am
    23    27    28    1
    24    28    29    1
    25    29    30    1
    26    30    31    1
    27     9    10   am
    28    10    11    2
    29     7     2   ar
    30    31    27    1
    31    10     4    1
    32    18    12   ar
    33    21    22    1
    34    21    23    1
@<TRIPOS>MOLECULE
*****
 31 34 0 0 0
SMALL
GASTEIGER

@<TRIPOS>ATOM
      1 C          63.7662   83.6369   15.0429 C.3     1  UNL1        0.0518
      2 C          63.5813   84.8547   14.1867 C.ar    1  UNL1        0.0568
      3 N          63.8775   86.2153   14.7442 N.ar    1  UNL1       -0.2456
      4 C          63.6926   87.4331   13.8882 C.ar    1  UNL1        0.1319
      5 C          63.2114   87.2902   12.4747 C.ar    1  UNL1        0.0196
      6 C          62.9152   85.9296   11.9172 C.ar    1  UNL1       -0.0015
      7 C          63.1001   84.7118   12.7733 C.ar    1  UNL1        0.0068
      8 C          63.1239   88.6619   11.8739 C.3     1  UNL1        0.1226
      9 N          63.5510   89.6525   12.9161 N.am    1  UNL1       -0.2623
     10 C          63.9025   88.8931   14.1610 C.2     1  UNL1        0.2671
     11 O          64.3800   89.4890   15.4521 O.2     1  UNL1       -0.2682
     12 C          62.4340   85.7866   10.5036 C.ar    1  UNL1        0.0102
     13 C          63.2651   85.0437    9.5000 C.ar    1  UNL1        0.0017
     14 C          62.7840   84.9006    8.0865 C.ar    1  UNL1        0.0114
     15 C          61.4717   85.5006    7.6766 C.ar    1  UNL1        0.0585
     16 CL         60.9906   85.3576    6.2631 Cl      1  UNL1       -0.0822
     17 C          60.6406   86.2436    8.6802 C.ar    1  UNL1        0.0228
     18 C          61.1217   86.3866   10.0938 C.ar    1  UNL1        0.0585
     19 CL         60.2906   87.1296   11.0974 Cl      1  UNL1       -0.0822
     20 C          62.8038   83.3510   12.2158 C.3     1  UNL1        0.0934
     21 N          63.9276   82.4572   11.7822 N.3     1  UNL1       -0.3174
     22 H          64.4010   82.8713   10.9792 H       1  UNL1        0.1192
     23 H          63.5550   81.5437   11.5234 H       1  UNL1        0.1192
     24 C          63.6153   91.1412   12.7438 C.3     1  UNL1        0.1798
     25 C          64.9312   91.8089   12.4745 C.2     1  UNL1        0.2460
     26 O          65.3846   92.0303   11.0619 O.2     1  UNL1       -0.2730
     27 N          65.7937   92.2551   13.6177 N.am    1  UNL1       -0.2781
     28 C          67.1271   92.9327   13.5041 C.3     1  UNL1        0.0935
     29 C          67.6317   93.1985   14.8914 C.3     1  UNL1        0.0233
     30 C          66.6102   92.6851   15.8625 C.3     1  UNL1        0.0233
     31 C          65.4742   92.1021   15.0753 C.3     1  UNL1        0.0935
@<TRIPOS>BOND
     1     1     2    1
     2     2     3   ar
     3     3     4   ar
     4     4     5   ar
     5     5     6   ar
     6     6    12    1
     7    12    13   ar
     8    13    14   ar
     9    14    15   ar
    10    15    16    1
    11    15    17   ar
    12    17    18   ar
    13    18    19    1
    14     6     7   ar
    15     7    20    1
    16    20    21    1
    17     5     8    1
    18     8     9    1
    19     9    24    1
    20    24    25    1
    21    25    26    2
    22    25    27   am
    23    27    28    1
    24    28    29    1
    25    29    30    1
    26    30    31    1
    27     9    10   am
    28    10    11    2
    29     7     2   ar
    30    31    27    1
    31    10     4    1
    32    18    12   ar
    33    21    22    1
    34    21    23    1
@<TRIPOS>MOLECULE
*****
 31 34 0 0 0
SMALL
GASTEIGER

@<TRIPOS>ATOM
      1 C          59.0957   88.1970    7.4203 C.3     1  UNL1        0.0518
      2 C          60.1029   88.1392    8.5305 C.ar    1  UNL1        0.0568
      3 N          60.5000   89.3946    9.2489 N.ar    1  UNL1       -0.2456
      4 C          61.5071   89.3368   10.3590 C.ar    1  UNL1        0.1319
      5 C          62.1171   88.0235   10.7507 C.ar    1  UNL1        0.0196
      6 C          61.7200   86.7681   10.0322 C.ar    1  UNL1       -0.0015
      7 C          60.7128   86.8260    8.9221 C.ar    1  UNL1        0.0068
      8 C          63.0767   88.2753   11.8757 C.3     1  UNL1        0.1226
      9 N          63.0598   89.7441   12.1794 N.am    1  UNL1       -0.2623
     10 C          62.0897   90.4002   11.2420 C.2     1  UNL1        0.2671
     11 O          61.7602   91.8628   11.1959 O.2     1  UNL1       -0.2682
     12 C          62.3299   85.4548   10.4238 C.ar    1  UNL1        0.0102
     13 C          62.0077   84.8459   11.7562 C.ar    1  UNL1        0.0017
     14 C          62.6176   83.5326   12.1478 C.ar    1  UNL1        0.0114
     15 C          63.5497   82.8284   11.2071 C.ar    1  UNL1        0.0585
     16 CL         64.1596   81.5152   11.5987 Cl      1  UNL1       -0.0822
     17 C          63.8720   83.4374    9.8747 C.ar    1  UNL1        0.0228
     18 C          63.2621   84.7506    9.4830 C.ar    1  UNL1        0.0585
     19 CL         63.5844   85.3596    8.1506 Cl      1  UNL1       -0.0822
     20 C          60.3156   85.5705    8.2036 C.3     1  UNL1        0.0934
     21 N          60.7004   85.3748    6.7670 N.3     1  UNL1       -0.3174
     22 H          60.2173   86.0624    6.1889 H       1  UNL1        0.1192
     23 H          60.4372   84.4353    6.4695 H       1  UNL1        0.1192
     24 C          63.8706   90.4356   13.2351 C.3     1  UNL1        0.1798
     25 C          64.8498   91.5042   12.8489 C.2     1  UNL1        0.2460
     26 O          64.9775   91.9211   11.4136 O.2     1  UNL1       -0.2730
     27 N          65.7013   92.1559   13.8978 N.am    1  UNL1       -0.2781
     28 C          66.7189   93.2328   13.6634 C.3     1  UNL1        0.0935
     29 C          67.3312   93.5876   14.9860 C.3     1  UNL1        0.0233
     30 C          66.6921   92.7299   16.0377 C.3     1  UNL1        0.0233
     31 C          65.6848   91.8451   15.3651 C.3     1  UNL1        0.0935
@<TRIPOS>BOND
     1     1     2    1
     2     2     3   ar
     3     3     4   ar
     4     4     5   ar
     5     5     6   ar
     6     6    12    1
     7    12    13   ar
     8    13    14   ar
     9    14    15   ar
    10    15    16    1
    11    15    17   ar
    12    17    18   ar
    13    18    19    1
    14     6     7   ar
    15     7    20    1
    16    20    21    1
    17     5     8    1
    18     8     9    1
    19     9    24    1
    20    24    25    1
    21    25    26    2
    22    25    27   am
    23    27    28    1
    24    28    29    1
    25    29    30    1
    26    30    31    1
    27     9    10   am
    28    10    11    2
    29     7     2   ar
    30    31    27    1
    31    10     4    1
    32    18    12   ar
    33    21    22    1
    34    21    23    1
@<TRIPOS>MOLECULE
*****
 31 34 0 0 0
SMALL
GASTEIGER

@<TRIPOS>ATOM
      1 C          65.1918   88.3860   14.8507 C.3     1  UNL1        0.0518
      2 C          64.2069   87.7515   13.9139 C.ar    1  UNL1        0.0568
      3 N          63.4310   88.6024   12.9527 N.ar    1  UNL1       -0.2456
      4 C          62.4461   87.9680   12.0159 C.ar    1  UNL1        0.1319
      5 C          62.2371   86.4829   12.0404 C.ar    1  UNL1        0.0196
      6 C          63.0130   85.6320   13.0016 C.ar    1  UNL1       -0.0015
      7 C          63.9979   86.2665   13.9384 C.ar    1  UNL1        0.0068
      8 C          61.2057   86.1428   11.0057 C.3     1  UNL1        0.1226
      9 N          60.7772   87.4178   10.3418 N.am    1  UNL1       -0.2623
     10 C          61.5439   88.5459   10.9661 C.2     1  UNL1        0.2671
     11 O          61.4285   89.9969   10.6041 O.2     1  UNL1       -0.2682
     12 C          62.8041   84.1468   13.0262 C.ar    1  UNL1        0.0102
     13 C          62.0551   83.5135   14.1610 C.ar    1  UNL1        0.0017
     14 C          61.8461   82.0284   14.1857 C.ar    1  UNL1        0.0114
     15 C          62.3861   81.1766   13.0754 C.ar    1  UNL1        0.0585
     16 CL         62.1771   79.6914   13.1000 Cl      1  UNL1       -0.0822
     17 C          63.1351   81.8099   11.9405 C.ar    1  UNL1        0.0228
     18 C          63.3441   83.2950   11.9159 C.ar    1  UNL1        0.0585
     19 CL         64.0930   83.9283   10.7810 Cl      1  UNL1       -0.0822
     20 C          64.7739   85.4156   14.8998 C.3     1  UNL1        0.0934
     21 N          66.0675   84.7888   14.4712 N.3     1  UNL1       -0.3174
     22 H          65.8861   84.0998   13.7413 H       1  UNL1        0.1192
     23 H          66.5045   84.3303   15.2707 H       1  UNL1        0.1192
     24 C          59.7606   87.5428    9.2459 C.3     1  UNL1        0.1798
     25 C          59.7369   86.5437    8.1273 C.2     1  UNL1        0.2460
     26 O          58.4526   86.2519    7.4095 O.2     1  UNL1       -0.2730
     27 N          60.9976   85.8364    7.7265 N.am    1  UNL1       -0.2781
     28 C          61.1275   84.8177    6.6332 C.3     1  UNL1        0.0935
     29 C          62.5598   84.3753    6.5797 C.3     1  UNL1        0.0233
     30 C          63.3150   85.1206    7.6400 C.3     1  UNL1        0.0233
     31 C          62.3495   86.0236    8.3488 C.3     1  UNL1        0.0935
@<TRIPOS>BOND
     1     1     2    1
     2     2     3   ar
     3     3     4   ar
     4     4     5   ar
     5     5     6   ar
     6     6    12    1
     7    12    13   ar
     8    13    14   ar
     9    14    15   ar
    10    15    16    1
    11    15    17   ar
    12    17    18   ar
    13    18    19    1
    14     6     7   ar
    15     7    20    1
    16    20    21    1
    17     5     8    1
    18     8     9    1
    19     9    24    1
    20    24    25    1
    21    25    26    2
    22    25    27   am
    23    27    28    1
    24    28    29    1
    25    29    30    1
    26    30    31    1
    27     9    10   am
    28    10    11    2
    29     7     2   ar
    30    31    27    1
    31    10     4    1
    32    18    12   ar
    33    21    22    1
    34    21    23    1
@<TRIPOS>MOLECULE
*****
 31 34 0 0 0
SMALL
GASTEIGER

@<TRIPOS>ATOM
      1 C          64.4311   88.6929   14.6078 C.3     1  UNL1        0.0518
      2 C          63.7662   87.8873   13.5312 C.ar    1  UNL1        0.0568
      3 N          63.2189   88.5704   12.3131 N.ar    1  UNL1       -0.2456
      4 C          62.5540   87.7649   11.2365 C.ar    1  UNL1        0.1319
      5 C          62.4364   86.2762   11.3780 C.ar    1  UNL1        0.0196
      6 C          62.9837   85.5931   12.5961 C.ar    1  UNL1       -0.0015
      7 C          63.6486   86.3987   13.6727 C.ar    1  UNL1        0.0068
      8 C          61.7345   85.7490   10.1617 C.3     1  UNL1        0.1226
      9 N          61.4183   86.9118    9.2685 N.am    1  UNL1       -0.2623
     10 C          61.9247   88.1577    9.9327 C.2     1  UNL1        0.2671
     11 O          61.8203   89.5517    9.3887 O.2     1  UNL1       -0.2682
     12 C          62.8661   84.1044   12.7377 C.ar    1  UNL1        0.0102
     13 C          62.0013   83.5195   13.8147 C.ar    1  UNL1        0.0017
     14 C          61.8837   82.0308   13.9563 C.ar    1  UNL1        0.0114
     15 C          62.6309   81.1272   13.0210 C.ar    1  UNL1        0.0585
     16 CL         62.5132   79.6385   13.1626 Cl      1  UNL1       -0.0822
     17 C          63.4957   81.7120   11.9439 C.ar    1  UNL1        0.0228
     18 C          63.6133   83.2007   11.8023 C.ar    1  UNL1        0.0585
     19 CL         64.4781   83.7856   10.7253 Cl      1  UNL1       -0.0822
     20 C          64.1959   85.7155   14.8909 C.3     1  UNL1        0.0934
     21 N          65.6004   85.1890   14.8881 N.3     1  UNL1       -0.3174
     22 H          65.6761   84.4257   14.2158 H       1  UNL1        0.1192
     23 H          65.8370   84.8467   15.8193 H       1  UNL1        0.1192
     24 C          60.7184   86.8412    7.9437 C.3     1  UNL1        0.1798
     25 C          59.3942   87.5208    7.7578 C.2     1  UNL1        0.2460
     26 O          58.1673   86.9664    8.4191 O.2     1  UNL1       -0.2730
     27 N          59.2968   88.7548    6.9106 N.am    1  UNL1       -0.2781
     28 C          58.0479   89.5386    6.6347 C.3     1  UNL1        0.0935
     29 C          58.4105   90.6899    5.7442 C.3     1  UNL1        0.0233
     30 C          59.8834   90.6176    5.4697 C.3     1  UNL1        0.0233
     31 C          60.4311   89.4217    6.1906 C.3     1  UNL1        0.0935
@<TRIPOS>BOND
     1     1     2    1
     2     2     3   ar
     3     3     4   ar
     4     4     5   ar
     5     5     6   ar
     6     6    12    1
     7    12    13   ar
     8    13    14   ar
     9    14    15   ar
    10    15    16    1
    11    15    17   ar
    12    17    18   ar
    13    18    19    1
    14     6     7   ar
    15     7    20    1
    16    20    21    1
    17     5     8    1
    18     8     9    1
    19     9    24    1
    20    24    25    1
    21    25    26    2
    22    25    27   am
    23    27    28    1
    24    28    29    1
    25    29    30    1
    26    30    31    1
    27     9    10   am
    28    10    11    2
    29     7     2   ar
    30    31    27    1
    31    10     4    1
    32    18    12   ar
    33    21    22    1
    34    21    23    1
@<TRIPOS>MOLECULE
*****
 31 34 0 0 0
SMALL
GASTEIGER

@<TRIPOS>ATOM
      1 C          63.9960   83.3750   15.0625 C.3     1  UNL1        0.0518
      2 C          63.7394   84.5987   14.2336 C.ar    1  UNL1        0.0568
      3 N          63.9230   85.9618   14.8320 N.ar    1  UNL1       -0.2456
      4 C          63.6664   87.1854   14.0033 C.ar    1  UNL1        0.1319
      5 C          63.2263   87.0459   12.5761 C.ar    1  UNL1        0.0196
      6 C          63.0427   85.6828   11.9777 C.ar    1  UNL1       -0.0015
      7 C          63.2993   84.4591   12.8065 C.ar    1  UNL1        0.0068
      8 C          63.0502   88.4232   12.0085 C.3     1  UNL1        0.1226
      9 N          63.3815   89.4139   13.0850 N.am    1  UNL1       -0.2623
     10 C          63.7623   88.6490   14.3178 C.2     1  UNL1        0.2671
     11 O          64.1679   89.2432   15.6340 O.2     1  UNL1       -0.2682
     12 C          62.6026   85.5432   10.5505 C.ar    1  UNL1        0.0102
     13 C          63.4350   84.7556    9.5826 C.ar    1  UNL1        0.0017
     14 C          62.9950   84.6159    8.1554 C.ar    1  UNL1        0.0114
     15 C          61.7225   85.2639    7.6962 C.ar    1  UNL1        0.0585
     16 CL         61.2825   85.1242    6.2690 Cl      1  UNL1       -0.0822
     17 C          60.8901   86.0515    8.6640 C.ar    1  UNL1        0.0228
     18 C          61.3302   86.1911   10.0912 C.ar    1  UNL1        0.0585
     19 CL         60.4977   86.9787   11.0591 Cl      1  UNL1       -0.0822
     20 C          63.1158   83.0959   12.2081 C.3     1  UNL1        0.0934
     21 N          62.0539   82.1799   12.7404 N.3     1  UNL1       -0.3174
     22 H          62.2817   81.9162   13.6991 H       1  UNL1        0.1192
     23 H          62.0049   81.3426   12.1600 H       1  UNL1        0.1192
     24 C          63.3393   90.9074   12.9520 C.3     1  UNL1        0.1798
     25 C          64.5424   91.7269   13.3140 C.2     1  UNL1        0.2460
     26 O          64.9850   91.8180   14.7443 O.2     1  UNL1       -0.2730
     27 N          65.3030   92.4552   12.2457 N.am    1  UNL1       -0.2781
     28 C          66.5187   93.3086   12.4550 C.3     1  UNL1        0.0935
     29 C          66.9483   93.8388   11.1193 C.3     1  UNL1        0.0233
     30 C          65.9982   93.3131   10.0845 C.3     1  UNL1        0.0233
     31 C          64.9813   92.4580   10.7806 C.3     1  UNL1        0.0935
@<TRIPOS>BOND
     1     1     2    1
     2     2     3   ar
     3     3     4   ar
     4     4     5   ar
     5     5     6   ar
     6     6    12    1
     7    12    13   ar
     8    13    14   ar
     9    14    15   ar
    10    15    16    1
    11    15    17   ar
    12    17    18   ar
    13    18    19    1
    14     6     7   ar
    15     7    20    1
    16    20    21    1
    17     5     8    1
    18     8     9    1
    19     9    24    1
    20    24    25    1
    21    25    26    2
    22    25    27   am
    23    27    28    1
    24    28    29    1
    25    29    30    1
    26    30    31    1
    27     9    10   am
    28    10    11    2
    29     7     2   ar
    30    31    27    1
    31    10     4    1
    32    18    12   ar
    33    21    22    1
    34    21    23    1
@<TRIPOS>MOLECULE
*****
 31 34 0 0 0
SMALL
GASTEIGER

@<TRIPOS>ATOM
      1 C          65.8513   92.6887   11.8803 C.3     1  UNL1        0.0518
      2 C          64.7784   91.6494   12.0189 C.ar    1  UNL1        0.0568
      3 N          63.8336   91.3908   10.8830 N.ar    1  UNL1       -0.2456
      4 C          62.7608   90.3516   11.0216 C.ar    1  UNL1        0.1319
      5 C          62.6329   89.5710   12.2961 C.ar    1  UNL1        0.0196
      6 C          63.5778   89.8296   13.4320 C.ar    1  UNL1       -0.0015
      7 C          64.6506   90.8689   13.2933 C.ar    1  UNL1        0.0068
      8 C          61.4855   88.6172   12.1424 C.3     1  UNL1        0.1226
      9 N          60.9042   88.8083   10.7728 N.am    1  UNL1       -0.2623
     10 C          61.6924   89.8802   10.0802 C.2     1  UNL1        0.2671
     11 O          61.4540   90.3910    8.6901 O.2     1  UNL1       -0.2682
     12 C          63.4500   89.0491   14.7066 C.ar    1  UNL1        0.0102
     13 C          63.0101   89.7357   15.9656 C.ar    1  UNL1        0.0017
     14 C          62.8823   88.9553   17.2401 C.ar    1  UNL1        0.0114
     15 C          63.1943   87.4882   17.2556 C.ar    1  UNL1        0.0585
     16 CL         63.0664   86.7077   18.5302 Cl      1  UNL1       -0.0822
     17 C          63.6341   86.8015   15.9966 C.ar    1  UNL1        0.0228
     18 C          63.7619   87.5820   14.7221 C.ar    1  UNL1        0.0585
     19 CL         64.2017   86.8954   13.4631 Cl      1  UNL1       -0.0822
     20 C          65.5955   91.1275   14.4293 C.3     1  UNL1        0.0934
     21 N          65.3828   92.3099   15.3274 N.3     1  UNL1       -0.3174
     22 H          65.5166   93.1697   14.7951 H       1  UNL1        0.1192
     23 H          66.0529   92.2781   16.0958 H       1  UNL1        0.1192
     24 C          59.7393   88.0590   10.1970 C.3     1  UNL1        0.1798
     25 C          59.8752   87.3616    8.8760 C.2     1  UNL1        0.2460
     26 O          58.8414   87.5684    7.8090 O.2     1  UNL1       -0.2730
     27 N          61.0447   86.4574    8.6219 N.am    1  UNL1       -0.2781
     28 C          61.3127   85.6967    7.3571 C.3     1  UNL1        0.0935
     29 C          62.5852   84.9243    7.5416 C.3     1  UNL1        0.0233
     30 C          63.1037   85.2076    8.9204 C.3     1  UNL1        0.0233
     31 C          62.1516   86.1550    9.5880 C.3     1  UNL1        0.0935
@<TRIPOS>BOND
     1     1     2    1
     2     2     3   ar
     3     3     4   ar
     4     4     5   ar
     5     5     6   ar
     6     6    12    1
     7    12    13   ar
     8    13    14   ar
     9    14    15   ar
    10    15    16    1
    11    15    17   ar
    12    17    18   ar
    13    18    19    1
    14     6     7   ar
    15     7    20    1
    16    20    21    1
    17     5     8    1
    18     8     9    1
    19     9    24    1
    20    24    25    1
    21    25    26    2
    22    25    27   am
    23    27    28    1
    24    28    29    1
    25    29    30    1
    26    30    31    1
    27     9    10   am
    28    10    11    2
    29     7     2   ar
    30    31    27    1
    31    10     4    1
    32    18    12   ar
    33    21    22    1
    34    21    23    1
