@<TRIPOS>MOLECULE
*****
 37 41 0 0 0
SMALL
GASTEIGER

@<TRIPOS>ATOM
      1 C          61.5327   87.3122   10.4700 C.ar    1  UNL1        0.0719
      2 C          62.2082   86.1006   11.0407 C.ar    1  UNL1        0.1049
      3 N          62.9153   86.5129   12.2976 N.ar    1  UNL1       -0.2242
      4 N          63.7455   85.7425   13.2810 N.ar    1  UNL1       -0.1422
      5 C          64.3373   86.4385   14.4706 C.ar    1  UNL1        0.2211
      6 N          64.0989   87.9050   14.6768 N.ar    1  UNL1       -0.2060
      7 C          63.2687   88.6755   13.6934 C.ar    1  UNL1        0.1515
      8 C          62.6769   87.9794   12.5038 C.ar    1  UNL1        0.1107
      9 C          61.8224   88.4734   11.3743 C.ar    1  UNL1        0.0040
     10 C          59.3968   88.1671    7.3439 C.ar    1  UNL1        0.3087
     11 N          59.4997   86.6754    7.2255 N.ar    1  UNL1       -0.0923
     12 N          60.3124   86.1736    8.3821 N.ar    1  UNL1       -0.1057
     13 C          60.7117   87.3552    9.2154 C.ar    1  UNL1        0.2525
     14 O          60.1458   88.5873    8.5738 O.2     1  UNL1       -0.4048
     15 C          59.3925   90.2354    5.7715 C.3     1  UNL1        0.1124
     16 N          58.6720   89.0787    6.3986 N.pl3   1  UNL1       -0.2854
     17 H          57.7235   88.9179    6.1896 H       1  UNL1        0.1512
     18 C          61.3420   89.8814   11.1828 C.3     1  UNL1        0.0241
     19 C          59.9823   90.2832   11.6727 C.3     1  UNL1        0.0047
     20 C          62.2211   90.8877   10.5013 C.3     1  UNL1        0.0047
     21 N          63.0303   90.1420   13.8996 N.pl3   1  UNL1       -0.2949
     22 H          62.1115   90.4956   13.9035 H       1  UNL1        0.1537
     23 C          64.1918   91.0697   14.1000 C.ar    1  UNL1        0.0775
     24 C          64.8812   91.6755   12.9134 C.ar    1  UNL1        0.0237
     25 C          66.0427   92.6033   13.1138 C.ar    1  UNL1        0.0821
     26 C          66.5148   92.9254   14.5006 C.ar    1  UNL1        0.1468
     27 F          67.6763   93.8532   14.7009 F       1  UNL1       -0.2039
     28 C          65.8254   92.3197   15.6871 C.ar    1  UNL1        0.0607
     29 C          64.6639   91.3918   15.4868 C.ar    1  UNL1        0.1557
     30 F          63.9746   90.7862   16.6734 F       1  UNL1       -0.2028
     31 C          66.7321   93.2090   11.9272 C.2     1  UNL1        0.2480
     32 O          67.9129   92.5179   11.3123 O.2     1  UNL1       -0.2701
     33 N          66.2407   94.5059   11.3556 N.am    1  UNL1       -0.3024
     34 H          65.4658   94.9595   11.7592 H       1  UNL1        0.1497
     35 C          66.9301   95.1116   10.1691 C.3     1  UNL1        0.0720
     36 C          67.3147   96.3193    9.3669 C.3     1  UNL1        0.0213
     37 C          67.7395   94.9532    8.9162 C.3     1  UNL1        0.0213
@<TRIPOS>BOND
     1    15    16    1
     2    16    10    1
     3    10    11   ar
     4    11    12   ar
     5    12    13   ar
     6    13     1    1
     7     1     2   ar
     8     2     3   ar
     9     3     4   ar
    10     4     5   ar
    11     5     6   ar
    12     6     7   ar
    13     7    21    1
    14    21    23    1
    15    23    24   ar
    16    24    25   ar
    17    25    31    1
    18    31    32    2
    19    31    33   am
    20    33    35    1
    21    35    36    1
    22    36    37    1
    23    25    26   ar
    24    26    27    1
    25    26    28   ar
    26    28    29   ar
    27    29    30    1
    28     7     8   ar
    29     8     9   ar
    30     9    18    1
    31    18    19    1
    32    18    20    1
    33    13    14   ar
    34    14    10   ar
    35     9     1   ar
    36     8     3   ar
    37    29    23   ar
    38    37    35    1
    39    16    17    1
    40    21    22    1
    41    33    34    1
@<TRIPOS>MOLECULE
*****
 37 41 0 0 0
SMALL
GASTEIGER

@<TRIPOS>ATOM
      1 C          62.7844   85.5365   11.1508 C.ar    1  UNL1        0.0719
      2 C          62.1894   86.2567    9.9773 C.ar    1  UNL1        0.1049
      3 N          61.9919   87.6920   10.3656 N.ar    1  UNL1       -0.2242
      4 N          61.4425   88.8685    9.6147 N.ar    1  UNL1       -0.1422
      5 C          61.3662   90.2120   10.2774 C.ar    1  UNL1        0.2211
      6 N          61.8392   90.3789   11.6910 N.ar    1  UNL1       -0.2060
      7 C          62.3886   89.2024   12.4420 C.ar    1  UNL1        0.1515
      8 C          62.4650   87.8590   11.7793 C.ar    1  UNL1        0.1107
      9 C          62.9548   86.5268   12.2645 C.ar    1  UNL1        0.0040
     10 C          63.1299   81.7170   11.7489 C.ar    1  UNL1        0.3087
     11 N          64.2736   81.9682   10.8115 N.ar    1  UNL1       -0.0923
     12 N          64.2834   83.4296   10.4733 N.ar    1  UNL1       -0.1057
     13 C          63.1457   84.0816   11.2018 C.ar    1  UNL1        0.2525
     14 O          62.4329   83.0232   11.9901 O.2     1  UNL1       -0.4048
     15 C          61.9878   80.3388   13.6320 C.3     1  UNL1        0.1124
     16 N          62.7499   80.3923   12.3411 N.pl3   1  UNL1       -0.2854
     17 H          63.0007   79.5580   11.8826 H       1  UNL1        0.1512
     18 C          63.5163   86.2360   13.6247 C.3     1  UNL1        0.0241
     19 C          62.9753   85.0924   14.4307 C.3     1  UNL1        0.0047
     20 C          64.6188   87.0887   14.1790 C.3     1  UNL1        0.0047
     21 N          62.8616   89.3694   13.8556 N.pl3   1  UNL1       -0.2949
     22 H          62.4770   88.8146   14.5722 H       1  UNL1        0.1537
     23 C          63.9207   90.3816   14.1775 C.ar    1  UNL1        0.0775
     24 C          64.8400   90.8741   13.0992 C.ar    1  UNL1        0.0237
     25 C          65.8991   91.8863   13.4211 C.ar    1  UNL1        0.0821
     26 C          66.0390   92.4061   14.8212 C.ar    1  UNL1        0.1468
     27 F          67.0982   93.4184   15.1430 F       1  UNL1       -0.2039
     28 C          65.1198   91.9138   15.8994 C.ar    1  UNL1        0.0607
     29 C          64.0606   90.9015   15.5775 C.ar    1  UNL1        0.1557
     30 F          63.1414   90.4091   16.6557 F       1  UNL1       -0.2028
     31 C          66.8184   92.3787   12.3429 C.2     1  UNL1        0.2480
     32 O          68.2931   92.1218   12.4393 O.2     1  UNL1       -0.2701
     33 N          66.2630   93.1281   11.1682 N.am    1  UNL1       -0.3024
     34 H          65.2951   93.2968   11.1048 H       1  UNL1        0.1497
     35 C          67.1822   93.6206   10.0900 C.3     1  UNL1        0.0720
     36 C          67.6950   94.7375    9.2301 C.3     1  UNL1        0.0213
     37 C          68.2614   93.3565    9.0823 C.3     1  UNL1        0.0213
@<TRIPOS>BOND
     1    15    16    1
     2    16    10    1
     3    10    11   ar
     4    11    12   ar
     5    12    13   ar
     6    13     1    1
     7     1     2   ar
     8     2     3   ar
     9     3     4   ar
    10     4     5   ar
    11     5     6   ar
    12     6     7   ar
    13     7    21    1
    14    21    23    1
    15    23    24   ar
    16    24    25   ar
    17    25    31    1
    18    31    32    2
    19    31    33   am
    20    33    35    1
    21    35    36    1
    22    36    37    1
    23    25    26   ar
    24    26    27    1
    25    26    28   ar
    26    28    29   ar
    27    29    30    1
    28     7     8   ar
    29     8     9   ar
    30     9    18    1
    31    18    19    1
    32    18    20    1
    33    13    14   ar
    34    14    10   ar
    35     9     1   ar
    36     8     3   ar
    37    29    23   ar
    38    37    35    1
    39    16    17    1
    40    21    22    1
    41    33    34    1
