@<TRIPOS>MOLECULE
*****
 43 49 0 0 0
SMALL
GASTEIGER

@<TRIPOS>ATOM
      1 N          60.1463   93.8474   -0.2310 N.am    1  UNL1       -0.2222
      2 C          59.5264   93.1446    0.9404 C.2     1  UNL1        0.3219
      3 O          58.0609   92.9016    1.1482 O.2     1  UNL1       -0.2512
      4 N          60.6296   92.7276    1.8674 N.am    1  UNL1       -0.1907
      5 C          61.9310   93.1726    1.2690 C.2     1  UNL1        0.2529
      6 O          63.2922   92.9624    1.8630 O.2     1  UNL1       -0.2724
      7 C          61.6324   93.8647   -0.0279 C.3     1  UNL1        0.1391
      8 C          61.1821   94.5276   -1.2959 C.3     1  UNL1        0.0449
      9 C          62.1922   95.1310   -2.2263 C.3     1  UNL1        0.0746
     10 N          63.6525   95.0715   -1.8887 N.3     1  UNL1       -0.2676
     11 C          64.1027   94.4086   -0.6207 C.3     1  UNL1        0.0746
     12 C          63.0927   93.8052    0.3097 C.3     1  UNL1        0.0449
     13 C          58.3344   94.1508   -3.7488 C.ar    1  UNL1        0.2293
     14 C          59.0713   93.5677   -2.5796 C.ar    1  UNL1        0.0924
     15 C          59.4093   94.4306   -1.4002 C.ar    1  UNL1        0.1453
     16 N          59.0104   95.8765   -1.3898 N.ar    1  UNL1       -0.2084
     17 C          58.2735   96.4597   -2.5588 C.ar    1  UNL1        0.2027
     18 N          57.9354   95.5968   -3.7384 N.ar    1  UNL1       -0.1892
     19 C          57.2010   92.0311   -4.7346 C.3     1  UNL1        0.2542
     20 O          57.9963   93.2881   -4.9283 O.3     1  UNL1       -0.4560
     21 C          60.4608   91.9943    3.1649 C.ar    1  UNL1        0.0622
     22 C          61.6136   91.2363    3.7535 C.ar    1  UNL1        0.0154
     23 C          61.4448   90.5029    5.0511 C.ar    1  UNL1        0.0010
     24 C          60.1232   90.5276    5.7601 C.ar    1  UNL1       -0.0036
     25 C          58.9703   91.2857    5.1715 C.ar    1  UNL1        0.0010
     26 C          59.1392   92.0190    3.8739 C.ar    1  UNL1        0.0154
     27 C          59.9544   89.7943    7.0577 C.2     1  UNL1       -0.0176
     28 C          59.2776   88.4558    7.0803 C.2     1  UNL1       -0.0023
     29 C          59.1088   87.7225    8.3779 C.2     1  UNL1        0.0203
     30 C          59.6168   88.3277    9.6529 C.2     1  UNL1        0.1007
     31 N          59.5939   87.8437   11.0724 N.2     1  UNL1       -0.1482
     32 N          60.2565   88.8830   11.9273 N.2     1  UNL1       -0.1467
     33 C          60.6889   90.0094   11.0361 C.2     1  UNL1        0.1197
     34 C          60.2936   89.6662    9.6303 C.2     1  UNL1        0.0225
     35 C          60.4624   90.3995    8.3328 C.3     1  UNL1        0.0558
     36 C          64.6626   95.6750   -2.8191 C.3     1  UNL1        0.1183
     37 C          64.4564   95.5968   -4.3028 C.ar    1  UNL1        0.0712
     38 N          64.2763   96.8532   -5.1022 N.ar    1  UNL1       -0.2471
     39 C          64.0701   96.7750   -6.5860 C.ar    1  UNL1        0.0985
     40 C          64.0440   95.4404   -7.2702 C.ar    1  UNL1        0.0203
     41 C          64.2240   94.1840   -6.4708 C.ar    1  UNL1       -0.0015
     42 C          64.4302   94.2622   -4.9871 C.ar    1  UNL1       -0.0069
     43 C          64.6103   93.0058   -4.1877 C.3     1  UNL1        0.0323
@<TRIPOS>BOND
     1    19    20    1
     2    20    13    1
     3    13    14   ar
     4    14    15   ar
     5    15     1    1
     6     1     2   am
     7     2     3    2
     8     2     4   am
     9     4    21    1
    10    21    22   ar
    11    22    23   ar
    12    23    24   ar
    13    24    27    1
    14    27    28    2
    15    28    29    1
    16    29    30    2
    17    30    31    1
    18    31    32    2
    19    32    33    1
    20    33    34    2
    21    34    35    1
    22    24    25   ar
    23    25    26   ar
    24     4     5   am
    25     5     6    2
    26     5     7    1
    27     7     8    1
    28     8     9    1
    29     9    10    1
    30    10    36    1
    31    36    37    1
    32    37    38   ar
    33    38    39   ar
    34    39    40   ar
    35    40    41   ar
    36    41    42   ar
    37    42    43    1
    38    10    11    1
    39    11    12    1
    40    15    16   ar
    41    16    17   ar
    42    17    18   ar
    43    18    13   ar
    44     7     1    1
    45    42    37   ar
    46    26    21   ar
    47    12     7    1
    48    35    27    1
    49    34    30    1
