@<TRIPOS>MOLECULE
*****
 37 40 0 0 0
SMALL
GASTEIGER

@<TRIPOS>ATOM
      1 C          63.5283   86.6393   16.7707 C.3     1  UNL1        0.0666
      2 S          62.7025   87.8899   16.8332 S.3     1  UNL1       -0.0756
      3 C          64.2082   88.2608   13.9619 C.3     1  UNL1        0.1340
      4 N          63.9368   89.3456   14.9617 N.ar    1  UNL1       -0.2884
      5 C          63.2447   89.1750   16.2815 C.ar    1  UNL1        0.1932
      6 N          63.1900   90.5153   16.9528 N.ar    1  UNL1       -0.1221
      7 N          63.8484   91.5142   16.0479 N.ar    1  UNL1       -0.1282
      8 C          64.3099   90.7912   14.8173 C.ar    1  UNL1        0.1668
      9 C          65.0199   91.4060   13.6477 C.ar    1  UNL1        0.0360
     10 C          64.2913   91.6147   12.3533 C.ar    1  UNL1        0.0032
     11 C          65.0013   92.2295   11.1837 C.ar    1  UNL1        0.0046
     12 C          66.4398   92.6355   11.3084 C.ar    1  UNL1        0.0531
     13 C          67.1684   92.4267   12.6029 C.ar    1  UNL1        0.0046
     14 C          66.4585   91.8119   13.7725 C.ar    1  UNL1        0.0032
     15 C          67.1498   93.2502   10.1388 C.2     1  UNL1        0.2427
     16 N          66.4414   94.2480    9.2715 N.am    1  UNL1       -0.3253
     17 O          68.5682   92.8671    9.8366 O.2     1  UNL1       -0.2704
     18 H          65.5105   94.4995    9.4698 H       1  UNL1        0.1453
     19 H          66.9074   94.6515    8.5038 H       1  UNL1        0.1453
     20 C          63.0471   85.4617   15.9758 C.3     1  UNL1        0.0294
     21 C          64.0352   84.5649   15.2909 C.3     1  UNL1        0.0732
     22 N          63.8128   84.1541   13.8654 N.3     1  UNL1       -0.2682
     23 C          64.3748   82.8576   13.3621 C.3     1  UNL1        0.1046
     24 C          64.1524   82.4469   11.9367 C.3     1  UNL1        0.1598
     25 O          63.3680   83.3326   11.0146 O.3     1  UNL1       -0.3489
     26 C          62.8061   84.6291   11.5179 C.3     1  UNL1        0.1534
     27 C          63.0285   85.0398   12.9433 C.3     1  UNL1        0.1067
     28 C          62.0218   85.5148   10.5958 C.ar    1  UNL1        0.0059
     29 C          61.1316   86.5828   11.1588 C.ar    1  UNL1       -0.0020
     30 C          60.3473   87.4686   10.2366 C.ar    1  UNL1        0.0036
     31 C          60.4531   87.2863    8.7516 C.ar    1  UNL1        0.0714
     32 C          61.3432   86.2183    8.1886 C.ar    1  UNL1        0.0036
     33 C          62.1275   85.3326    9.1107 C.ar    1  UNL1       -0.0020
     34 C          59.6687   88.1720    7.8295 C.3     1  UNL1        0.4186
     35 F          58.8844   89.0578    6.9073 F       1  UNL1       -0.1659
     36 F          58.9045   86.9800    7.3345 F       1  UNL1       -0.1659
     37 F          60.4330   89.3641    8.3244 F       1  UNL1       -0.1659
@<TRIPOS>BOND
     1     3     4    1
     2     4     5   ar
     3     5     2    1
     4     2     1    1
     5     1    20    1
     6    20    21    1
     7    21    22    1
     8    22    23    1
     9    23    24    1
    10    24    25    1
    11    25    26    1
    12    26    28    1
    13    28    29   ar
    14    29    30   ar
    15    30    31   ar
    16    31    34    1
    17    34    35    1
    18    34    36    1
    19    34    37    1
    20    31    32   ar
    21    32    33   ar
    22    26    27    1
    23     5     6   ar
    24     6     7   ar
    25     7     8   ar
    26     8     9    1
    27     9    10   ar
    28    10    11   ar
    29    11    12   ar
    30    12    15    1
    31    15    16   am
    32    15    17    2
    33    12    13   ar
    34    13    14   ar
    35     8     4   ar
    36    14     9   ar
    37    27    22    1
    38    33    28   ar
    39    16    18    1
    40    16    19    1
@<TRIPOS>MOLECULE
*****
 37 40 0 0 0
SMALL
GASTEIGER

@<TRIPOS>ATOM
      1 C          64.1416   83.2861   12.8973 C.3     1  UNL1        0.0666
      2 S          63.7373   83.6799   11.5075 S.3     1  UNL1       -0.0756
      3 C          63.0132   85.0902    8.6551 C.3     1  UNL1        0.1340
      4 N          62.4244   85.4445    9.9884 N.ar    1  UNL1       -0.2884
      5 C          62.7573   84.7963   11.2996 C.ar    1  UNL1        0.1932
      6 N          61.9380   85.4604   12.3662 N.ar    1  UNL1       -0.1221
      7 N          61.0988   86.5191   11.7143 N.ar    1  UNL1       -0.1282
      8 C          61.3995   86.5093   10.2447 C.ar    1  UNL1        0.1668
      9 C          60.7833   87.4066    9.2127 C.ar    1  UNL1        0.0360
     10 C          60.0281   86.8154    8.0594 C.ar    1  UNL1        0.0032
     11 C          59.4120   87.7128    7.0274 C.ar    1  UNL1        0.0046
     12 C          59.5510   89.2013    7.1486 C.ar    1  UNL1        0.0531
     13 C          60.3062   89.7926    8.3019 C.ar    1  UNL1        0.0046
     14 C          60.9224   88.8952    9.3339 C.ar    1  UNL1        0.0032
     15 C          58.9349   90.0987    6.1166 C.2     1  UNL1        0.2427
     16 N          57.4435   90.1570    5.9676 N.am    1  UNL1       -0.3253
     17 O          59.8102   90.9378    5.2336 O.2     1  UNL1       -0.2704
     18 H          56.8690   89.6062    6.5472 H       1  UNL1        0.1453
     19 H          57.0391   90.7460    5.2902 H       1  UNL1        0.1453
     20 C          64.8310   84.2777   13.7872 C.3     1  UNL1        0.0294
     21 C          64.2897   84.5587   15.1575 C.3     1  UNL1        0.0732
     22 N          63.9273   85.9610   15.5478 N.3     1  UNL1       -0.2682
     23 C          63.2219   86.2197   16.8460 C.3     1  UNL1        0.1046
     24 C          62.8596   87.6220   17.2362 C.3     1  UNL1        0.1598
     25 O          63.2027   88.7656   16.3281 O.3     1  UNL1       -0.3489
     26 C          63.9081   88.5069   15.0299 C.3     1  UNL1        0.1534
     27 C          64.2704   87.1046   14.6397 C.3     1  UNL1        0.1067
     28 C          64.2512   89.6505   14.1219 C.ar    1  UNL1        0.0059
     29 C          63.4734   89.8632   12.8570 C.ar    1  UNL1       -0.0020
     30 C          63.8165   91.0068   11.9490 C.ar    1  UNL1        0.0036
     31 C          64.9373   91.9376   12.3058 C.ar    1  UNL1        0.0714
     32 C          65.7150   91.7248   13.5706 C.ar    1  UNL1        0.0036
     33 C          65.3719   90.5813   14.4787 C.ar    1  UNL1       -0.0020
     34 C          65.2804   93.0812   11.3977 C.3     1  UNL1        0.4186
     35 F          65.6235   94.2247   10.4897 F       1  UNL1       -0.1659
     36 F          64.5385   92.4143   10.2776 F       1  UNL1       -0.1659
     37 F          66.0223   93.7481   12.5179 F       1  UNL1       -0.1659
@<TRIPOS>BOND
     1     3     4    1
     2     4     5   ar
     3     5     2    1
     4     2     1    1
     5     1    20    1
     6    20    21    1
     7    21    22    1
     8    22    23    1
     9    23    24    1
    10    24    25    1
    11    25    26    1
    12    26    28    1
    13    28    29   ar
    14    29    30   ar
    15    30    31   ar
    16    31    34    1
    17    34    35    1
    18    34    36    1
    19    34    37    1
    20    31    32   ar
    21    32    33   ar
    22    26    27    1
    23     5     6   ar
    24     6     7   ar
    25     7     8   ar
    26     8     9    1
    27     9    10   ar
    28    10    11   ar
    29    11    12   ar
    30    12    15    1
    31    15    16   am
    32    15    17    2
    33    12    13   ar
    34    13    14   ar
    35     8     4   ar
    36    14     9   ar
    37    27    22    1
    38    33    28   ar
    39    16    18    1
    40    16    19    1
@<TRIPOS>MOLECULE
*****
 37 40 0 0 0
SMALL
GASTEIGER

@<TRIPOS>ATOM
      1 C          60.3719   89.1181    8.5999 C.3     1  UNL1        0.0666
      2 S          60.0205   89.9967    9.7637 S.3     1  UNL1       -0.0756
      3 C          62.9727   91.3805    9.9023 C.3     1  UNL1        0.1340
      4 N          62.2737   90.6796   11.0293 N.ar    1  UNL1       -0.2884
      5 C          60.9167   90.0435   10.9655 C.ar    1  UNL1        0.1932
      6 N          60.6133   89.4625   12.3147 N.ar    1  UNL1       -0.1221
      7 N          61.7828   89.7395   13.2123 N.ar    1  UNL1       -0.1282
      8 C          62.8090   90.4917   12.4178 C.ar    1  UNL1        0.1668
      9 C          64.1372   90.9717   12.9232 C.ar    1  UNL1        0.0360
     10 C          64.8753   92.0494   12.1858 C.ar    1  UNL1        0.0032
     11 C          66.2035   92.5294   12.6911 C.ar    1  UNL1        0.0046
     12 C          66.7937   91.9318   13.9339 C.ar    1  UNL1        0.0531
     13 C          66.0555   90.8541   14.6713 C.ar    1  UNL1        0.0046
     14 C          64.7273   90.3741   14.1660 C.ar    1  UNL1        0.0032
     15 C          68.1219   92.4118   14.4393 C.2     1  UNL1        0.2427
     16 N          69.3822   92.0161   13.7288 N.am    1  UNL1       -0.3253
     17 O          68.1897   93.2876   15.6552 O.2     1  UNL1       -0.2704
     18 H          69.3377   91.4412   12.9308 H       1  UNL1        0.1453
     19 H          70.2539   92.3311   14.0605 H       1  UNL1        0.1453
     20 C          59.2943   88.3691    7.8732 C.3     1  UNL1        0.0294
     21 C          59.3757   86.8771    7.7420 C.3     1  UNL1        0.0732
     22 N          60.6246   86.1551    8.1531 N.3     1  UNL1       -0.2682
     23 C          61.4546   85.4467    7.1240 C.3     1  UNL1        0.1046
     24 C          62.7035   84.7247    7.5352 C.3     1  UNL1        0.1598
     25 O          63.1223   84.7111    8.9754 O.3     1  UNL1       -0.3489
     26 C          62.2923   85.4195   10.0046 C.3     1  UNL1        0.1534
     27 C          61.0435   86.1415    9.5934 C.3     1  UNL1        0.1067
     28 C          62.7111   85.4059   11.4449 C.ar    1  UNL1        0.0059
     29 C          62.7274   84.1153   12.2091 C.ar    1  UNL1       -0.0020
     30 C          63.1462   84.1017   13.6493 C.ar    1  UNL1        0.0036
     31 C          63.5487   85.3788   14.3254 C.ar    1  UNL1        0.0714
     32 C          63.5325   86.6694   13.5612 C.ar    1  UNL1        0.0036
     33 C          63.1136   86.6829   12.1209 C.ar    1  UNL1       -0.0020
     34 C          63.9675   85.3652   15.7657 C.3     1  UNL1        0.4186
     35 F          64.3864   85.3516   17.2060 F       1  UNL1       -0.1659
     36 F          63.9960   86.8649   15.7715 F       1  UNL1       -0.1659
     37 F          63.9390   83.8655   15.7598 F       1  UNL1       -0.1659
@<TRIPOS>BOND
     1     3     4    1
     2     4     5   ar
     3     5     2    1
     4     2     1    1
     5     1    20    1
     6    20    21    1
     7    21    22    1
     8    22    23    1
     9    23    24    1
    10    24    25    1
    11    25    26    1
    12    26    28    1
    13    28    29   ar
    14    29    30   ar
    15    30    31   ar
    16    31    34    1
    17    34    35    1
    18    34    36    1
    19    34    37    1
    20    31    32   ar
    21    32    33   ar
    22    26    27    1
    23     5     6   ar
    24     6     7   ar
    25     7     8   ar
    26     8     9    1
    27     9    10   ar
    28    10    11   ar
    29    11    12   ar
    30    12    15    1
    31    15    16   am
    32    15    17    2
    33    12    13   ar
    34    13    14   ar
    35     8     4   ar
    36    14     9   ar
    37    27    22    1
    38    33    28   ar
    39    16    18    1
    40    16    19    1
@<TRIPOS>MOLECULE
*****
 37 40 0 0 0
SMALL
GASTEIGER

@<TRIPOS>ATOM
      1 C          60.5640   86.8214    9.2284 C.3     1  UNL1        0.0666
      2 S          60.1402   88.2039    9.6271 S.3     1  UNL1       -0.0756
      3 C          63.0678   89.5932   10.0127 C.3     1  UNL1        0.1340
      4 N          62.0125   89.4528   11.0693 N.ar    1  UNL1       -0.2884
      5 C          60.6668   88.8142   10.8921 C.ar    1  UNL1        0.1932
      6 N          59.9401   88.8931   12.2019 N.ar    1  UNL1       -0.1221
      7 N          60.8366   89.5804   13.1887 N.ar    1  UNL1       -0.1282
      8 C          62.1175   89.9263   12.4888 C.ar    1  UNL1        0.1668
      9 C          63.2963   90.6234   13.1008 C.ar    1  UNL1        0.0360
     10 C          63.6150   90.4233   14.5528 C.ar    1  UNL1        0.0032
     11 C          64.7938   91.1204   15.1648 C.ar    1  UNL1        0.0046
     12 C          65.6538   92.0174   14.3249 C.ar    1  UNL1        0.0531
     13 C          65.3350   92.2175   12.8728 C.ar    1  UNL1        0.0046
     14 C          64.1562   91.5204   12.2608 C.ar    1  UNL1        0.0032
     15 C          66.8326   92.7145   14.9369 C.2     1  UNL1        0.2427
     16 N          66.7717   93.1808   16.3611 N.am    1  UNL1       -0.3253
     17 O          68.0723   92.9451   14.1245 O.2     1  UNL1       -0.2704
     18 H          65.9580   93.0295   16.8943 H       1  UNL1        0.1453
     19 H          67.5454   93.6383   16.7628 H       1  UNL1        0.1453
     20 C          61.9780   86.5651    8.7982 C.3     1  UNL1        0.0294
     21 C          62.4895   85.1583    8.7024 C.3     1  UNL1        0.0732
     22 N          63.0971   84.4976    9.9042 N.3     1  UNL1       -0.2682
     23 C          63.8556   83.2127    9.7506 C.3     1  UNL1        0.1046
     24 C          64.4631   82.5522   10.9524 C.3     1  UNL1        0.1598
     25 O          64.3122   83.1765   12.3079 O.3     1  UNL1       -0.3489
     26 C          63.5538   84.4614   12.4616 C.3     1  UNL1        0.1534
     27 C          62.9462   85.1220   11.2598 C.3     1  UNL1        0.1067
     28 C          63.4029   85.0858   13.8171 C.ar    1  UNL1        0.0059
     29 C          64.1532   86.3405   14.1526 C.ar    1  UNL1       -0.0020
     30 C          64.0023   86.9649   15.5081 C.ar    1  UNL1        0.0036
     31 C          63.1011   86.3345   16.5281 C.ar    1  UNL1        0.0714
     32 C          62.3508   85.0797   16.1926 C.ar    1  UNL1        0.0036
     33 C          62.5017   84.4554   14.8371 C.ar    1  UNL1       -0.0020
     34 C          62.9503   86.9588   17.8837 C.3     1  UNL1        0.4186
     35 F          62.7994   87.5832   19.2392 F       1  UNL1       -0.1659
     36 F          62.4809   85.6457   18.4363 F       1  UNL1       -0.1659
     37 F          63.4196   88.2720   17.3311 F       1  UNL1       -0.1659
@<TRIPOS>BOND
     1     3     4    1
     2     4     5   ar
     3     5     2    1
     4     2     1    1
     5     1    20    1
     6    20    21    1
     7    21    22    1
     8    22    23    1
     9    23    24    1
    10    24    25    1
    11    25    26    1
    12    26    28    1
    13    28    29   ar
    14    29    30   ar
    15    30    31   ar
    16    31    34    1
    17    34    35    1
    18    34    36    1
    19    34    37    1
    20    31    32   ar
    21    32    33   ar
    22    26    27    1
    23     5     6   ar
    24     6     7   ar
    25     7     8   ar
    26     8     9    1
    27     9    10   ar
    28    10    11   ar
    29    11    12   ar
    30    12    15    1
    31    15    16   am
    32    15    17    2
    33    12    13   ar
    34    13    14   ar
    35     8     4   ar
    36    14     9   ar
    37    27    22    1
    38    33    28   ar
    39    16    18    1
    40    16    19    1
@<TRIPOS>MOLECULE
*****
 37 40 0 0 0
SMALL
GASTEIGER

@<TRIPOS>ATOM
      1 C          64.4881   82.1807   14.4129 C.3     1  UNL1        0.0666
      2 S          63.8688   81.6908   13.1375 S.3     1  UNL1       -0.0756
      3 C          61.9831   84.3541   13.1208 C.3     1  UNL1        0.1340
      4 N          62.8157   83.8561   11.9768 N.ar    1  UNL1       -0.2884
      5 C          63.6824   82.6319   11.9845 C.ar    1  UNL1        0.1932
      6 N          64.3301   82.5140   10.6367 N.ar    1  UNL1       -0.1221
      7 N          63.8637   83.6654    9.7960 N.ar    1  UNL1       -0.1282
      8 C          62.9276   84.4948   10.6242 C.ar    1  UNL1        0.1668
      9 C          62.2267   85.7437   10.1782 C.ar    1  UNL1        0.0360
     10 C          62.3682   87.0079   10.9732 C.ar    1  UNL1        0.0032
     11 C          61.6673   88.2567   10.5271 C.ar    1  UNL1        0.0046
     12 C          60.8249   88.2416    9.2862 C.ar    1  UNL1        0.0531
     13 C          60.6834   86.9774    8.4912 C.ar    1  UNL1        0.0046
     14 C          61.3843   85.7285    8.9372 C.ar    1  UNL1        0.0032
     15 C          60.1240   89.4904    8.8401 C.2     1  UNL1        0.2427
     16 N          59.7772   89.6798    7.3932 N.am    1  UNL1       -0.3253
     17 O          59.7698   90.5500    9.8411 O.2     1  UNL1       -0.2704
     18 H          60.0096   88.9844    6.7362 H       1  UNL1        0.1453
     19 H          59.3171   90.4995    7.1005 H       1  UNL1        0.1453
     20 C          63.9633   83.4210   15.0734 C.3     1  UNL1        0.0294
     21 C          64.8682   84.5985   15.2845 C.3     1  UNL1        0.0732
     22 N          64.2861   85.9455   15.5959 N.3     1  UNL1       -0.2682
     23 C          63.3809   86.1158   16.7797 C.3     1  UNL1        0.1046
     24 C          62.7988   87.4628   17.0910 C.3     1  UNL1        0.1598
     25 O          63.1221   88.6393   16.2186 O.3     1  UNL1       -0.3489
     26 C          64.0274   88.4690   15.0348 C.3     1  UNL1        0.1534
     27 C          64.6094   87.1221   14.7235 C.3     1  UNL1        0.1067
     28 C          64.3507   89.6456   14.1623 C.ar    1  UNL1        0.0059
     29 C          63.5112   89.9362   12.9538 C.ar    1  UNL1       -0.0020
     30 C          63.8344   91.1128   12.0813 C.ar    1  UNL1        0.0036
     31 C          64.9972   91.9987   12.4175 C.ar    1  UNL1        0.0714
     32 C          65.8367   91.7081   13.6260 C.ar    1  UNL1        0.0036
     33 C          65.5135   90.5315   14.4985 C.ar    1  UNL1       -0.0020
     34 C          65.3205   93.1753   11.5450 C.3     1  UNL1        0.4186
     35 F          65.6438   94.3519   10.6726 F       1  UNL1       -0.1659
     36 F          65.8298   93.9227   12.7417 F       1  UNL1       -0.1659
     37 F          64.8112   92.4279   10.3483 F       1  UNL1       -0.1659
@<TRIPOS>BOND
     1     3     4    1
     2     4     5   ar
     3     5     2    1
     4     2     1    1
     5     1    20    1
     6    20    21    1
     7    21    22    1
     8    22    23    1
     9    23    24    1
    10    24    25    1
    11    25    26    1
    12    26    28    1
    13    28    29   ar
    14    29    30   ar
    15    30    31   ar
    16    31    34    1
    17    34    35    1
    18    34    36    1
    19    34    37    1
    20    31    32   ar
    21    32    33   ar
    22    26    27    1
    23     5     6   ar
    24     6     7   ar
    25     7     8   ar
    26     8     9    1
    27     9    10   ar
    28    10    11   ar
    29    11    12   ar
    30    12    15    1
    31    15    16   am
    32    15    17    2
    33    12    13   ar
    34    13    14   ar
    35     8     4   ar
    36    14     9   ar
    37    27    22    1
    38    33    28   ar
    39    16    18    1
    40    16    19    1
@<TRIPOS>MOLECULE
*****
 37 40 0 0 0
SMALL
GASTEIGER

@<TRIPOS>ATOM
      1 C          62.7453   87.8281   16.5736 C.3     1  UNL1        0.0666
      2 S          63.4307   89.1505   16.3961 S.3     1  UNL1       -0.0756
      3 C          65.4157   91.5972   15.5458 C.3     1  UNL1        0.1340
      4 N          64.4585   90.8825   14.6386 N.ar    1  UNL1       -0.2884
      5 C          63.5462   89.7578   15.0294 C.ar    1  UNL1        0.1932
      6 N          62.7695   89.3472   13.8137 N.ar    1  UNL1       -0.1221
      7 N          63.2019   90.2180   12.6714 N.ar    1  UNL1       -0.1282
      8 C          64.2458   91.1669   13.1813 C.ar    1  UNL1        0.1668
      9 C          64.9528   92.2160   12.3753 C.ar    1  UNL1        0.0360
     10 C          65.7925   93.2512   13.0634 C.ar    1  UNL1        0.0032
     11 C          66.4994   94.3003   12.2575 C.ar    1  UNL1        0.0046
     12 C          66.3668   94.3143   10.7635 C.ar    1  UNL1        0.0531
     13 C          65.5271   93.2791   10.0754 C.ar    1  UNL1        0.0046
     14 C          64.8201   92.2300   10.8814 C.ar    1  UNL1        0.0032
     15 C          67.0737   95.3633    9.9576 C.2     1  UNL1        0.2427
     16 N          68.1270   94.9648    8.9668 N.am    1  UNL1       -0.3253
     17 O          66.7274   96.8111   10.1424 O.2     1  UNL1       -0.2704
     18 H          68.3543   94.0146    8.8455 H       1  UNL1        0.1453
     19 H          68.5910   95.6533    8.4378 H       1  UNL1        0.1453
     20 C          63.5415   86.5578   16.5225 C.3     1  UNL1        0.0294
     21 C          64.4779   86.3051   15.3784 C.3     1  UNL1        0.0732
     22 N          64.0173   85.5079   14.1941 N.3     1  UNL1       -0.2682
     23 C          64.3658   84.0529   14.0880 C.3     1  UNL1        0.1046
     24 C          63.9051   83.2558   12.9038 C.3     1  UNL1        0.1598
     25 O          63.0959   83.9138   11.8257 O.3     1  UNL1       -0.3489
     26 C          62.7474   85.3688   11.9318 C.3     1  UNL1        0.1534
     27 C          63.2081   86.1659   13.1160 C.3     1  UNL1        0.1067
     28 C          61.9382   86.0268   10.8537 C.ar    1  UNL1        0.0059
     29 C          62.1169   85.6125    9.4232 C.ar    1  UNL1       -0.0020
     30 C          61.3077   86.2704    8.3452 C.ar    1  UNL1        0.0036
     31 C          60.3198   87.3427    8.6976 C.ar    1  UNL1        0.0714
     32 C          60.1411   87.7570   10.1281 C.ar    1  UNL1        0.0036
     33 C          60.9503   87.0991   11.2061 C.ar    1  UNL1       -0.0020
     34 C          59.5106   88.0007    7.6195 C.3     1  UNL1        0.4186
     35 F          58.7014   88.6586    6.5414 F       1  UNL1       -0.1659
     36 F          60.2502   89.2854    7.8484 F       1  UNL1       -0.1659
     37 F          58.7710   86.7159    7.3905 F       1  UNL1       -0.1659
@<TRIPOS>BOND
     1     3     4    1
     2     4     5   ar
     3     5     2    1
     4     2     1    1
     5     1    20    1
     6    20    21    1
     7    21    22    1
     8    22    23    1
     9    23    24    1
    10    24    25    1
    11    25    26    1
    12    26    28    1
    13    28    29   ar
    14    29    30   ar
    15    30    31   ar
    16    31    34    1
    17    34    35    1
    18    34    36    1
    19    34    37    1
    20    31    32   ar
    21    32    33   ar
    22    26    27    1
    23     5     6   ar
    24     6     7   ar
    25     7     8   ar
    26     8     9    1
    27     9    10   ar
    28    10    11   ar
    29    11    12   ar
    30    12    15    1
    31    15    16   am
    32    15    17    2
    33    12    13   ar
    34    13    14   ar
    35     8     4   ar
    36    14     9   ar
    37    27    22    1
    38    33    28   ar
    39    16    18    1
    40    16    19    1
@<TRIPOS>MOLECULE
*****
 37 40 0 0 0
SMALL
GASTEIGER

@<TRIPOS>ATOM
      1 C          59.5125   87.1102    8.3872 C.3     1  UNL1        0.0666
      2 S          59.4413   87.6997    9.7647 S.3     1  UNL1       -0.0756
      3 C          60.8419   90.4614   10.7947 C.3     1  UNL1        0.1340
      4 N          61.3253   89.0696   11.0759 N.ar    1  UNL1       -0.2884
      5 C          60.6815   87.8002   10.6024 C.ar    1  UNL1        0.1932
      6 N          61.4956   86.6488   11.1139 N.ar    1  UNL1       -0.1221
      7 N          62.6425   87.2066   11.9034 N.ar    1  UNL1       -0.1282
      8 C          62.5372   88.7028   11.8799 C.ar    1  UNL1        0.1668
      9 C          63.4787   89.6634   12.5439 C.ar    1  UNL1        0.0360
     10 C          64.0740   89.3280   13.8793 C.ar    1  UNL1        0.0032
     11 C          65.0155   90.2886   14.5432 C.ar    1  UNL1        0.0046
     12 C          65.3616   91.5846   13.8720 C.ar    1  UNL1        0.0531
     13 C          64.7662   91.9199   12.5366 C.ar    1  UNL1        0.0046
     14 C          63.8248   90.9593   11.8727 C.ar    1  UNL1        0.0032
     15 C          66.3030   92.5452   14.5360 C.2     1  UNL1        0.2427
     16 N          66.1151   92.9018   15.9807 N.am    1  UNL1       -0.3253
     17 O          67.4324   93.1491   13.7551 O.2     1  UNL1       -0.2704
     18 H          65.3738   92.5055   16.4932 H       1  UNL1        0.1453
     19 H          66.7330   93.5323   16.4165 H       1  UNL1        0.1453
     20 C          59.2834   87.9797    7.1865 C.3     1  UNL1        0.0294
     21 C          59.7678   89.3993    7.1851 C.3     1  UNL1        0.0732
     22 N          59.3689   90.3268    6.0757 N.3     1  UNL1       -0.2682
     23 C          57.9246   90.6787    5.8751 C.3     1  UNL1        0.1046
     24 C          57.5258   91.6062    4.7658 C.3     1  UNL1        0.1598
     25 O          58.5712   92.1817    3.8570 O.3     1  UNL1       -0.3489
     26 C          60.0155   91.8298    4.0576 C.3     1  UNL1        0.1534
     27 C          60.4143   90.9024    5.1670 C.3     1  UNL1        0.1067
     28 C          61.0609   92.4054    3.1489 C.ar    1  UNL1        0.0059
     29 C          62.4494   91.8379    3.1487 C.ar    1  UNL1       -0.0020
     30 C          63.4948   92.4134    2.2400 C.ar    1  UNL1        0.0036
     31 C          63.1517   93.5565    1.3314 C.ar    1  UNL1        0.0714
     32 C          61.7633   94.1241    1.3315 C.ar    1  UNL1        0.0036
     33 C          60.7179   93.5485    2.2403 C.ar    1  UNL1       -0.0020
     34 C          64.1972   94.1321    0.4227 C.3     1  UNL1        0.4186
     35 F          65.2426   94.7077   -0.4861 F       1  UNL1       -0.1659
     36 F          64.9988   92.8702    0.5456 F       1  UNL1       -0.1659
     37 F          63.3956   95.3940    0.2997 F       1  UNL1       -0.1659
@<TRIPOS>BOND
     1     3     4    1
     2     4     5   ar
     3     5     2    1
     4     2     1    1
     5     1    20    1
     6    20    21    1
     7    21    22    1
     8    22    23    1
     9    23    24    1
    10    24    25    1
    11    25    26    1
    12    26    28    1
    13    28    29   ar
    14    29    30   ar
    15    30    31   ar
    16    31    34    1
    17    34    35    1
    18    34    36    1
    19    34    37    1
    20    31    32   ar
    21    32    33   ar
    22    26    27    1
    23     5     6   ar
    24     6     7   ar
    25     7     8   ar
    26     8     9    1
    27     9    10   ar
    28    10    11   ar
    29    11    12   ar
    30    12    15    1
    31    15    16   am
    32    15    17    2
    33    12    13   ar
    34    13    14   ar
    35     8     4   ar
    36    14     9   ar
    37    27    22    1
    38    33    28   ar
    39    16    18    1
    40    16    19    1
@<TRIPOS>MOLECULE
*****
 37 40 0 0 0
SMALL
GASTEIGER

@<TRIPOS>ATOM
      1 C          60.2868   89.3696    9.4353 C.3     1  UNL1        0.0666
      2 S          61.4246   89.7214   10.3471 S.3     1  UNL1       -0.0756
      3 C          60.9190   86.5067   10.1028 C.3     1  UNL1        0.1340
      4 N          61.8251   87.1844   11.0876 N.ar    1  UNL1       -0.2884
      5 C          62.0575   88.6621   11.1999 C.ar    1  UNL1        0.1932
      6 N          63.0339   88.8943   12.3146 N.ar    1  UNL1       -0.1221
      7 N          63.4049   87.5603   12.8913 N.ar    1  UNL1       -0.1282
      8 C          62.6578   86.5034   12.1329 C.ar    1  UNL1        0.1668
      9 C          62.7307   85.0253   12.3771 C.ar    1  UNL1        0.0360
     10 C          62.8848   84.0810   11.2218 C.ar    1  UNL1        0.0032
     11 C          62.9577   82.6028   11.4659 C.ar    1  UNL1        0.0046
     12 C          62.8764   82.0688   12.8653 C.ar    1  UNL1        0.0531
     13 C          62.7223   83.0131   14.0205 C.ar    1  UNL1        0.0046
     14 C          62.6494   84.4913   13.7764 C.ar    1  UNL1        0.0032
     15 C          62.9493   80.5906   13.1094 C.2     1  UNL1        0.2427
     16 N          62.7258   79.6317   11.9779 N.am    1  UNL1       -0.3253
     17 O          63.2457   80.0715   14.4851 O.2     1  UNL1       -0.2704
     18 H          62.5312   79.9725   11.0750 H       1  UNL1        0.1453
     19 H          62.7736   78.6615   12.1382 H       1  UNL1        0.1453
     20 C          60.4864   89.3796    7.9486 C.3     1  UNL1        0.0294
     21 C          59.3104   89.2115    7.0328 C.3     1  UNL1        0.0732
     22 N          59.0247   90.2431    5.9819 N.3     1  UNL1       -0.2682
     23 C          57.6221   90.7318    5.7724 C.3     1  UNL1        0.1046
     24 C          57.3365   91.7633    4.7216 C.3     1  UNL1        0.1598
     25 O          58.4534   92.3061    3.8802 O.3     1  UNL1       -0.3489
     26 C          59.8559   91.8174    4.0897 C.3     1  UNL1        0.1534
     27 C          60.1416   90.7859    5.1406 C.3     1  UNL1        0.1067
     28 C          60.9728   92.3602    3.2484 C.ar    1  UNL1        0.0059
     29 C          62.3225   91.7067    3.2813 C.ar    1  UNL1       -0.0020
     30 C          63.4394   92.2495    2.4399 C.ar    1  UNL1        0.0036
     31 C          63.2066   93.4459    1.5656 C.ar    1  UNL1        0.0714
     32 C          61.8570   94.0994    1.5327 C.ar    1  UNL1        0.0036
     33 C          60.7401   93.5566    2.3741 C.ar    1  UNL1       -0.0020
     34 C          64.3235   93.9887    0.7243 C.3     1  UNL1        0.4186
     35 F          65.4405   94.5315   -0.1171 F       1  UNL1       -0.1659
     36 F          63.5875   95.2883    0.5856 F       1  UNL1       -0.1659
     37 F          65.0596   92.6891    0.8630 F       1  UNL1       -0.1659
@<TRIPOS>BOND
     1     3     4    1
     2     4     5   ar
     3     5     2    1
     4     2     1    1
     5     1    20    1
     6    20    21    1
     7    21    22    1
     8    22    23    1
     9    23    24    1
    10    24    25    1
    11    25    26    1
    12    26    28    1
    13    28    29   ar
    14    29    30   ar
    15    30    31   ar
    16    31    34    1
    17    34    35    1
    18    34    36    1
    19    34    37    1
    20    31    32   ar
    21    32    33   ar
    22    26    27    1
    23     5     6   ar
    24     6     7   ar
    25     7     8   ar
    26     8     9    1
    27     9    10   ar
    28    10    11   ar
    29    11    12   ar
    30    12    15    1
    31    15    16   am
    32    15    17    2
    33    12    13   ar
    34    13    14   ar
    35     8     4   ar
    36    14     9   ar
    37    27    22    1
    38    33    28   ar
    39    16    18    1
    40    16    19    1
@<TRIPOS>MOLECULE
*****
 37 40 0 0 0
SMALL
GASTEIGER

@<TRIPOS>ATOM
      1 C          63.1760   91.0520   10.8375 C.3     1  UNL1        0.0666
      2 S          61.9315   90.4796   10.2265 S.3     1  UNL1       -0.0756
      3 C          63.1333   88.2320   12.2646 C.3     1  UNL1        0.1340
      4 N          62.3303   87.9606   11.0271 N.ar    1  UNL1       -0.2884
      5 C          61.7779   88.9937   10.0902 C.ar    1  UNL1        0.1932
      6 N          61.0449   88.2800    8.9933 N.ar    1  UNL1       -0.1221
      7 N          61.1443   86.8059    9.2521 N.ar    1  UNL1       -0.1282
      8 C          61.9387   86.6085   10.5091 C.ar    1  UNL1        0.1668
      9 C          62.2814   85.2904   11.1377 C.ar    1  UNL1        0.0360
     10 C          62.7671   84.1562   10.2845 C.ar    1  UNL1        0.0032
     11 C          63.1098   82.8381   10.9131 C.ar    1  UNL1        0.0046
     12 C          62.9667   82.6541   12.3948 C.ar    1  UNL1        0.0531
     13 C          62.4810   83.7882   13.2480 C.ar    1  UNL1        0.0046
     14 C          62.1384   85.1063   12.6194 C.ar    1  UNL1        0.0032
     15 C          63.3094   81.3360   13.0234 C.2     1  UNL1        0.2427
     16 N          62.7635   80.0645   12.4445 N.am    1  UNL1       -0.3253
     17 O          64.1981   81.2894   14.2309 O.2     1  UNL1       -0.2704
     18 H          62.1802   80.0951   11.6519 H       1  UNL1        0.1453
     19 H          62.9884   79.1994   12.8570 H       1  UNL1        0.1453
     20 C          64.0597   91.9569   10.0311 C.3     1  UNL1        0.0294
     21 C          65.0429   92.8551   10.7214 C.3     1  UNL1        0.0732
     22 N          65.3479   92.6555   12.1765 N.3     1  UNL1       -0.2682
     23 C          66.2259   93.6332   12.8997 C.3     1  UNL1        0.1046
     24 C          66.5308   93.4336   14.3547 C.3     1  UNL1        0.1598
     25 O          65.9578   92.2563   15.0865 O.3     1  UNL1       -0.3489
     26 C          65.0798   91.2785   14.3633 C.3     1  UNL1        0.1534
     27 C          64.7749   91.4781   12.9083 C.3     1  UNL1        0.1067
     28 C          64.5068   90.1012   15.0950 C.ar    1  UNL1        0.0059
     29 C          63.6261   90.3169   16.2899 C.ar    1  UNL1       -0.0020
     30 C          63.0531   89.1396   17.0217 C.ar    1  UNL1        0.0036
     31 C          63.3608   87.7465   16.5586 C.ar    1  UNL1        0.0714
     32 C          64.2415   87.5307   15.3637 C.ar    1  UNL1        0.0036
     33 C          64.8145   88.7081   14.6319 C.ar    1  UNL1       -0.0020
     34 C          62.7878   86.5691   17.2903 C.3     1  UNL1        0.4186
     35 F          62.2147   85.3918   18.0221 F       1  UNL1       -0.1659
     36 F          62.8979   85.7411   16.0444 F       1  UNL1       -0.1659
     37 F          62.6776   87.3971   18.5363 F       1  UNL1       -0.1659
@<TRIPOS>BOND
     1     3     4    1
     2     4     5   ar
     3     5     2    1
     4     2     1    1
     5     1    20    1
     6    20    21    1
     7    21    22    1
     8    22    23    1
     9    23    24    1
    10    24    25    1
    11    25    26    1
    12    26    28    1
    13    28    29   ar
    14    29    30   ar
    15    30    31   ar
    16    31    34    1
    17    34    35    1
    18    34    36    1
    19    34    37    1
    20    31    32   ar
    21    32    33   ar
    22    26    27    1
    23     5     6   ar
    24     6     7   ar
    25     7     8   ar
    26     8     9    1
    27     9    10   ar
    28    10    11   ar
    29    11    12   ar
    30    12    15    1
    31    15    16   am
    32    15    17    2
    33    12    13   ar
    34    13    14   ar
    35     8     4   ar
    36    14     9   ar
    37    27    22    1
    38    33    28   ar
    39    16    18    1
    40    16    19    1
