@<TRIPOS>MOLECULE
*****
 30 31 0 0 0
SMALL
GASTEIGER

@<TRIPOS>ATOM
      1 N          63.0377   85.1856   12.4604 N.ar    1  UNL1       -0.3149
      2 C          63.7643   84.3308   13.4560 C.ar    1  UNL1        0.1203
      3 N          64.4762   85.2390   14.4144 N.ar    1  UNL1       -0.2310
      4 C          64.1895   86.6550   14.0111 C.ar    1  UNL1        0.0983
      5 C          64.6232   87.9701   14.5875 C.ar    1  UNL1        0.0206
      6 C          64.1677   89.2523   13.9563 C.ar    1  UNL1        0.0017
      7 C          63.2786   89.2194   12.7486 C.ar    1  UNL1        0.0016
      8 C          62.8450   87.9042   12.1722 C.ar    1  UNL1        0.0188
      9 C          63.3004   86.6220   12.8035 C.ar    1  UNL1        0.0786
     10 C          64.6014   90.5676   14.5327 C.2     1  UNL1        0.0048
     11 C          65.8826   91.2004   14.0767 C.2     1  UNL1        0.0598
     12 C          66.3163   92.5156   14.6531 C.2     1  UNL1        0.2679
     13 O          65.9276   93.7961   13.9754 O.2     1  UNL1       -0.2681
     14 N          67.1385   92.5503   15.9071 N.am    1  UNL1       -0.1934
     15 O          67.5721   93.8655   16.4834 O.3     1  UNL1       -0.2949
     16 H          67.3936   91.7099   16.3519 H       1  UNL1        0.1825
     17 H          67.2394   94.5875   15.9277 H       1  UNL1        0.2414
     18 C          62.1960   84.6909   11.3216 C.3     1  UNL1        0.1084
     19 C          62.3969   85.2475    9.9434 C.3     1  UNL1        0.0356
     20 C          63.5772   84.3423    9.7498 C.3     1  UNL1        0.0033
     21 C          61.2165   86.1527   10.1369 C.3     1  UNL1        0.0033
     22 C          62.5977   85.8042    8.5651 C.3     1  UNL1        0.0740
     23 C          60.2530   85.8540    7.4468 C.3     1  UNL1        0.0897
     24 N          61.6812   85.3954    7.4501 N.3     1  UNL1       -0.2703
     25 C          62.1930   84.5281    6.3384 C.3     1  UNL1        0.0897
     26 C          63.7769   82.8312   13.4877 C.3     1  UNL1        0.0639
     27 C          62.5199   82.0772   13.8061 C.3     1  UNL1        0.0071
     28 C          62.7391   81.2050   12.6057 C.3     1  UNL1        0.0004
     29 C          62.3008   82.9494   15.0066 C.3     1  UNL1        0.0004
     30 C          61.2629   81.3232   14.1246 C.3     1  UNL1        0.0004
@<TRIPOS>BOND
     1    23    24    1
     2    24    25    1
     3    24    22    1
     4    22    19    1
     5    19    20    1
     6    19    21    1
     7    19    18    1
     8    18     1    1
     9     1     2   ar
    10     2    26    1
    11    26    27    1
    12    27    28    1
    13    27    29    1
    14    27    30    1
    15     2     3   ar
    16     3     4   ar
    17     4     5   ar
    18     5     6   ar
    19     6    10    1
    20    10    11    2
    21    11    12    1
    22    12    13    2
    23    12    14   am
    24    14    15    1
    25     6     7   ar
    26     7     8   ar
    27     8     9   ar
    28     9     1   ar
    29     9     4   ar
    30    14    16    1
    31    15    17    1
@<TRIPOS>MOLECULE
*****
 30 31 0 0 0
SMALL
GASTEIGER

@<TRIPOS>ATOM
      1 N          62.7526   85.8595   12.3139 N.ar    1  UNL1       -0.3149
      2 C          63.3635   84.9125   13.3038 C.ar    1  UNL1        0.1203
      3 N          64.1615   85.7190   14.2851 N.ar    1  UNL1       -0.2310
      4 C          64.0439   87.1643   13.9016 C.ar    1  UNL1        0.0983
      5 C          64.6171   88.4125   14.5043 C.ar    1  UNL1        0.0206
      6 C          64.3195   89.7476   13.8887 C.ar    1  UNL1        0.0017
      7 C          63.4488   89.8345   12.6704 C.ar    1  UNL1        0.0016
      8 C          62.8755   88.5863   12.0677 C.ar    1  UNL1        0.0188
      9 C          63.1731   87.2512   12.6833 C.ar    1  UNL1        0.0786
     10 C          64.8928   90.9959   14.4914 C.2     1  UNL1        0.0048
     11 C          66.1039   91.6361   13.8803 C.2     1  UNL1        0.0598
     12 C          66.6771   92.8844   14.4831 C.2     1  UNL1        0.2679
     13 O          66.2256   94.2288   13.9945 O.2     1  UNL1       -0.2681
     14 N          67.7018   92.7883   15.5743 N.am    1  UNL1       -0.1934
     15 O          68.2749   94.0365   16.1769 O.3     1  UNL1       -0.2949
     16 H          67.9981   91.9059   15.8949 H       1  UNL1        0.1825
     17 H          67.8789   94.8127   15.7507 H       1  UNL1        0.2414
     18 C          61.8753   85.4813   11.1575 C.3     1  UNL1        0.1084
     19 C          61.6492   86.4536   10.0381 C.3     1  UNL1        0.0356
     20 C          60.5306   87.0853   10.8125 C.3     1  UNL1        0.0033
     21 C          62.7678   85.8220    9.2635 C.3     1  UNL1        0.0033
     22 C          61.4232   87.4260    8.9185 C.3     1  UNL1        0.0740
     23 C          59.7597   85.9588    7.5654 C.3     1  UNL1        0.0897
     24 N          60.2021   87.3057    8.0555 N.3     1  UNL1       -0.2703
     25 C          59.4234   88.5324    7.6828 C.3     1  UNL1        0.0897
     26 C          63.2043   83.4210   13.3113 C.3     1  UNL1        0.0639
     27 C          63.4243   82.6370   12.0515 C.3     1  UNL1        0.0071
     28 C          64.7132   83.3687   11.8212 C.3     1  UNL1        0.0004
     29 C          62.1353   81.9053   12.2819 C.3     1  UNL1        0.0004
     30 C          63.6441   81.8530   10.7918 C.3     1  UNL1        0.0004
@<TRIPOS>BOND
     1    23    24    1
     2    24    25    1
     3    24    22    1
     4    22    19    1
     5    19    20    1
     6    19    21    1
     7    19    18    1
     8    18     1    1
     9     1     2   ar
    10     2    26    1
    11    26    27    1
    12    27    28    1
    13    27    29    1
    14    27    30    1
    15     2     3   ar
    16     3     4   ar
    17     4     5   ar
    18     5     6   ar
    19     6    10    1
    20    10    11    2
    21    11    12    1
    22    12    13    2
    23    12    14   am
    24    14    15    1
    25     6     7   ar
    26     7     8   ar
    27     8     9   ar
    28     9     1   ar
    29     9     4   ar
    30    14    16    1
    31    15    17    1
@<TRIPOS>MOLECULE
*****
 30 31 0 0 0
SMALL
GASTEIGER

@<TRIPOS>ATOM
      1 N          65.5357   92.6773   12.8944 N.ar    1  UNL1       -0.3149
      2 C          65.7761   92.1187   14.2656 C.ar    1  UNL1        0.1203
      3 N          64.9920   90.8462   14.3916 N.ar    1  UNL1       -0.2310
      4 C          64.2671   90.6183   13.0984 C.ar    1  UNL1        0.0983
      5 C          63.3444   89.5266   12.6438 C.ar    1  UNL1        0.0206
      6 C          62.7578   89.5665   11.2639 C.ar    1  UNL1        0.0017
      7 C          63.0938   90.6983   10.3385 C.ar    1  UNL1        0.0016
      8 C          64.0164   91.7900   10.7931 C.ar    1  UNL1        0.0188
      9 C          64.6031   91.7501   12.1730 C.ar    1  UNL1        0.0786
     10 C          61.8350   88.4747   10.8092 C.2     1  UNL1        0.0048
     11 C          61.2879   88.4882    9.4127 C.2     1  UNL1        0.0598
     12 C          60.3652   87.3964    8.9581 C.2     1  UNL1        0.2679
     13 O          60.6561   85.9699    9.3190 O.2     1  UNL1       -0.2681
     14 N          59.1516   87.7312    8.1425 N.am    1  UNL1       -0.1934
     15 O          58.2290   86.6394    7.6879 O.3     1  UNL1       -0.2949
     16 H          58.9607   88.6675    7.9056 H       1  UNL1        0.1825
     17 H          58.5597   85.7841    8.0041 H       1  UNL1        0.2414
     18 C          66.1245   93.9414   12.3417 C.3     1  UNL1        0.1084
     19 C          66.4375   94.0457   10.8785 C.3     1  UNL1        0.0356
     20 C          67.4735   92.9708   11.0233 C.3     1  UNL1        0.0033
     21 C          65.4014   95.1208   10.7336 C.3     1  UNL1        0.0033
     22 C          66.7504   94.1502    9.4152 C.3     1  UNL1        0.0740
     23 C          66.4519   95.7453    7.3861 C.3     1  UNL1        0.0897
     24 N          66.9394   95.4973    8.7828 N.3     1  UNL1       -0.2703
     25 C          67.6160   96.5963    9.5473 C.3     1  UNL1        0.0897
     26 C          66.6475   92.7260   15.3248 C.3     1  UNL1        0.0639
     27 C          68.1384   92.7256   15.1605 C.3     1  UNL1        0.0071
     28 C          68.2262   93.9956   15.9538 C.3     1  UNL1        0.0004
     29 C          68.0507   91.4556   14.3673 C.3     1  UNL1        0.0004
     30 C          69.6295   92.7251   14.9962 C.3     1  UNL1        0.0004
@<TRIPOS>BOND
     1    23    24    1
     2    24    25    1
     3    24    22    1
     4    22    19    1
     5    19    20    1
     6    19    21    1
     7    19    18    1
     8    18     1    1
     9     1     2   ar
    10     2    26    1
    11    26    27    1
    12    27    28    1
    13    27    29    1
    14    27    30    1
    15     2     3   ar
    16     3     4   ar
    17     4     5   ar
    18     5     6   ar
    19     6    10    1
    20    10    11    2
    21    11    12    1
    22    12    13    2
    23    12    14   am
    24    14    15    1
    25     6     7   ar
    26     7     8   ar
    27     8     9   ar
    28     9     1   ar
    29     9     4   ar
    30    14    16    1
    31    15    17    1
@<TRIPOS>MOLECULE
*****
 30 31 0 0 0
SMALL
GASTEIGER

@<TRIPOS>ATOM
      1 N          62.1803   87.2324   11.4674 N.ar    1  UNL1       -0.3149
      2 C          61.7142   87.2086   10.0419 C.ar    1  UNL1        0.1203
      3 N          62.0910   88.5154    9.4092 N.ar    1  UNL1       -0.2310
      4 C          62.7901   89.3468   10.4437 C.ar    1  UNL1        0.0983
      5 C          63.3835   90.7234   10.3917 C.ar    1  UNL1        0.0206
      6 C          64.0320   91.3071   11.6118 C.ar    1  UNL1        0.0017
      7 C          64.0872   90.5141   12.8838 C.ar    1  UNL1        0.0016
      8 C          63.4938   89.1375   12.9358 C.ar    1  UNL1        0.0188
      9 C          62.8453   88.5538   11.7158 C.ar    1  UNL1        0.0786
     10 C          64.6255   92.6838   11.5598 C.2     1  UNL1        0.0048
     11 C          65.8515   92.9414   10.7349 C.2     1  UNL1        0.0598
     12 C          66.4449   94.3181   10.6829 C.2     1  UNL1        0.2679
     13 O          67.7576   94.5433    9.9930 O.2     1  UNL1       -0.2681
     14 N          65.7256   95.4694   11.3209 N.am    1  UNL1       -0.1934
     15 O          66.3191   96.8460   11.2689 O.3     1  UNL1       -0.2949
     16 H          64.8640   95.3215   11.7737 H       1  UNL1        0.1825
     17 H          67.1622   96.8167   10.7903 H       1  UNL1        0.2414
     18 C          62.0112   86.1285   12.4688 C.3     1  UNL1        0.1084
     19 C          63.0850   85.0942   12.6335 C.3     1  UNL1        0.0356
     20 C          62.3951   84.2181   11.6303 C.3     1  UNL1        0.0033
     21 C          63.7750   85.9703   13.6368 C.3     1  UNL1        0.0033
     22 C          64.1588   84.0600   12.7983 C.3     1  UNL1        0.0740
     23 C          64.1687   81.4718   13.0258 C.3     1  UNL1        0.0897
     24 N          63.8938   82.8261   13.6092 N.3     1  UNL1       -0.2703
     25 C          63.3539   82.9467   15.0034 C.3     1  UNL1        0.0897
     26 C          60.9971   86.0768    9.3675 C.3     1  UNL1        0.0639
     27 C          61.4654   85.5826    8.0309 C.3     1  UNL1        0.0071
     28 C          60.0930   85.8051    7.4678 C.3     1  UNL1        0.0004
     29 C          62.8377   85.3601    8.5940 C.3     1  UNL1        0.0004
     30 C          61.9337   85.0883    6.6943 C.3     1  UNL1        0.0004
@<TRIPOS>BOND
     1    23    24    1
     2    24    25    1
     3    24    22    1
     4    22    19    1
     5    19    20    1
     6    19    21    1
     7    19    18    1
     8    18     1    1
     9     1     2   ar
    10     2    26    1
    11    26    27    1
    12    27    28    1
    13    27    29    1
    14    27    30    1
    15     2     3   ar
    16     3     4   ar
    17     4     5   ar
    18     5     6   ar
    19     6    10    1
    20    10    11    2
    21    11    12    1
    22    12    13    2
    23    12    14   am
    24    14    15    1
    25     6     7   ar
    26     7     8   ar
    27     8     9   ar
    28     9     1   ar
    29     9     4   ar
    30    14    16    1
    31    15    17    1
@<TRIPOS>MOLECULE
*****
 30 31 0 0 0
SMALL
GASTEIGER

@<TRIPOS>ATOM
      1 N          62.4102   87.0190   11.2178 N.ar    1  UNL1       -0.3149
      2 C          62.2277   87.8751    9.9996 C.ar    1  UNL1        0.1203
      3 N          62.7711   89.2391   10.3062 N.ar    1  UNL1       -0.2310
      4 C          63.2894   89.2261   11.7137 C.ar    1  UNL1        0.0983
      5 C          63.9357   90.2864   12.5551 C.ar    1  UNL1        0.0206
      6 C          64.3589   89.9746   13.9600 C.ar    1  UNL1        0.0017
      7 C          64.1358   88.6024   14.5234 C.ar    1  UNL1        0.0016
      8 C          63.4896   87.5421   13.6820 C.ar    1  UNL1        0.0188
      9 C          63.0664   87.8540   12.2771 C.ar    1  UNL1        0.0786
     10 C          65.0052   91.0349   14.8015 C.2     1  UNL1        0.0048
     11 C          66.4473   91.3874   14.5868 C.2     1  UNL1        0.0598
     12 C          67.0936   92.4477   15.4283 C.2     1  UNL1        0.2679
     13 O          66.4373   92.9003   16.6989 O.2     1  UNL1       -0.2681
     14 N          68.3961   93.0554   14.9992 N.am    1  UNL1       -0.1934
     15 O          69.0423   94.1157   15.8407 O.3     1  UNL1       -0.2949
     16 H          68.8268   92.7583   14.1652 H       1  UNL1        0.1825
     17 H          68.4921   94.2896   16.6203 H       1  UNL1        0.2414
     18 C          62.0073   85.5804   11.3528 C.3     1  UNL1        0.1084
     19 C          63.0512   84.5270   11.5772 C.3     1  UNL1        0.0356
     20 C          62.7063   84.4960   13.0367 C.3     1  UNL1        0.0033
     21 C          63.3961   84.5580   10.1177 C.3     1  UNL1        0.0033
     22 C          64.0951   83.4736   11.8015 C.3     1  UNL1        0.0740
     23 C          63.0796   81.2581   10.9012 C.3     1  UNL1        0.0897
     24 N          63.6862   82.0474   12.0232 N.3     1  UNL1       -0.2703
     25 C          63.8840   81.4108   13.3669 C.3     1  UNL1        0.0897
     26 C          61.6102   87.4429    8.7027 C.3     1  UNL1        0.0639
     27 C          60.1245   87.2631    8.6026 C.3     1  UNL1        0.0071
     28 C          60.3301   85.9352    7.9360 C.3     1  UNL1        0.0004
     29 C          59.9188   88.5910    9.2692 C.3     1  UNL1        0.0004
     30 C          58.6386   87.0833    8.5025 C.3     1  UNL1        0.0004
@<TRIPOS>BOND
     1    23    24    1
     2    24    25    1
     3    24    22    1
     4    22    19    1
     5    19    20    1
     6    19    21    1
     7    19    18    1
     8    18     1    1
     9     1     2   ar
    10     2    26    1
    11    26    27    1
    12    27    28    1
    13    27    29    1
    14    27    30    1
    15     2     3   ar
    16     3     4   ar
    17     4     5   ar
    18     5     6   ar
    19     6    10    1
    20    10    11    2
    21    11    12    1
    22    12    13    2
    23    12    14   am
    24    14    15    1
    25     6     7   ar
    26     7     8   ar
    27     8     9   ar
    28     9     1   ar
    29     9     4   ar
    30    14    16    1
    31    15    17    1
@<TRIPOS>MOLECULE
*****
 30 31 0 0 0
SMALL
GASTEIGER

@<TRIPOS>ATOM
      1 N          63.1940   86.5834   12.2915 N.ar    1  UNL1       -0.3149
      2 C          63.3918   87.8901   13.0011 C.ar    1  UNL1        0.1203
      3 N          62.5917   88.9345   12.2807 N.ar    1  UNL1       -0.2310
      4 C          61.8994   88.2733   11.1259 C.ar    1  UNL1        0.0983
      5 C          60.9782   88.8067   10.0691 C.ar    1  UNL1        0.0206
      6 C          60.4292   87.8870    9.0190 C.ar    1  UNL1        0.0017
      7 C          60.8015   86.4339    9.0257 C.ar    1  UNL1        0.0016
      8 C          61.7227   85.9006   10.0825 C.ar    1  UNL1        0.0188
      9 C          62.2717   86.8203   11.1326 C.ar    1  UNL1        0.0786
     10 C          59.5079   88.4203    7.9622 C.2     1  UNL1        0.0048
     11 C          59.9004   89.6292    7.1656 C.2     1  UNL1        0.0598
     12 C          58.9791   90.1625    6.1087 C.2     1  UNL1        0.2679
     13 O          59.5416   90.8604    4.9060 O.2     1  UNL1       -0.2681
     14 N          57.4953   89.9980    6.2546 N.am    1  UNL1       -0.1934
     15 O          56.5741   90.5313    5.1978 O.3     1  UNL1       -0.2949
     16 H          57.1261   89.5399    7.0440 H       1  UNL1        0.1825
     17 H          57.0959   90.9498    4.4953 H       1  UNL1        0.2414
     18 C          63.8104   85.2704   12.6737 C.3     1  UNL1        0.1084
     19 C          63.0367   83.9981   12.4940 C.3     1  UNL1        0.0356
     20 C          62.1983   84.3388   13.6902 C.3     1  UNL1        0.0033
     21 C          63.8752   83.6573   11.2977 C.3     1  UNL1        0.0033
     22 C          62.2631   82.7256   12.3142 C.3     1  UNL1        0.0740
     23 C          63.7705   81.0675   13.6290 C.3     1  UNL1        0.0897
     24 N          62.4101   81.6116   13.3078 N.3     1  UNL1       -0.2703
     25 C          61.1965   81.0416   13.9804 C.3     1  UNL1        0.0897
     26 C          64.2407   88.1131   14.2176 C.3     1  UNL1        0.0639
     27 C          64.0026   89.3106   15.0890 C.3     1  UNL1        0.0071
     28 C          63.2181   88.4600   16.0434 C.3     1  UNL1        0.0004
     29 C          64.7871   90.1612   14.1345 C.3     1  UNL1        0.0004
     30 C          63.7645   90.5081   15.9604 C.3     1  UNL1        0.0004
@<TRIPOS>BOND
     1    23    24    1
     2    24    25    1
     3    24    22    1
     4    22    19    1
     5    19    20    1
     6    19    21    1
     7    19    18    1
     8    18     1    1
     9     1     2   ar
    10     2    26    1
    11    26    27    1
    12    27    28    1
    13    27    29    1
    14    27    30    1
    15     2     3   ar
    16     3     4   ar
    17     4     5   ar
    18     5     6   ar
    19     6    10    1
    20    10    11    2
    21    11    12    1
    22    12    13    2
    23    12    14   am
    24    14    15    1
    25     6     7   ar
    26     7     8   ar
    27     8     9   ar
    28     9     1   ar
    29     9     4   ar
    30    14    16    1
    31    15    17    1
@<TRIPOS>MOLECULE
*****
 30 31 0 0 0
SMALL
GASTEIGER

@<TRIPOS>ATOM
      1 N          63.2768   89.5179   12.3515 N.ar    1  UNL1       -0.3149
      2 C          64.0521   89.9697   13.5535 C.ar    1  UNL1        0.1203
      3 N          64.4218   88.7538   14.3504 N.ar    1  UNL1       -0.2310
      4 C          63.8751   87.5506   13.6409 C.ar    1  UNL1        0.0983
      5 C          63.9302   86.0860   13.9602 C.ar    1  UNL1        0.0206
      6 C          63.2777   85.0937   13.0440 C.ar    1  UNL1        0.0017
      7 C          62.5700   85.5659   11.8086 C.ar    1  UNL1        0.0016
      8 C          62.5149   87.0305   11.4894 C.ar    1  UNL1        0.0188
      9 C          63.1674   88.0228   12.4055 C.ar    1  UNL1        0.0786
     10 C          63.3327   83.6290   13.3633 C.2     1  UNL1        0.0048
     11 C          62.7708   82.6291   12.3967 C.2     1  UNL1        0.0598
     12 C          62.8259   81.1645   12.7160 C.2     1  UNL1        0.2679
     13 O          62.7973   80.1538   11.6079 O.2     1  UNL1       -0.2681
     14 N          62.9095   80.7106   14.1431 N.am    1  UNL1       -0.1934
     15 O          62.9646   79.2460   14.4623 O.3     1  UNL1       -0.2949
     16 H          62.9282   81.3739   14.8704 H       1  UNL1        0.1825
     17 H          62.9370   78.7343   13.6387 H       1  UNL1        0.2414
     18 C          62.7104   90.4053   11.2831 C.3     1  UNL1        0.1084
     19 C          61.3808   90.0836   10.6678 C.3     1  UNL1        0.0356
     20 C          60.7346   90.1702   12.0187 C.3     1  UNL1        0.0033
     21 C          62.0270   89.9969    9.3168 C.3     1  UNL1        0.0033
     22 C          60.0512   89.7619   10.0524 C.3     1  UNL1        0.0740
     23 C          59.6765   89.0317    7.5873 C.3     1  UNL1        0.0897
     24 N          59.9448   88.6787    9.0202 N.3     1  UNL1       -0.2703
     25 C          60.1068   87.2423    9.4210 C.3     1  UNL1        0.0897
     26 C          64.3970   91.3882   13.8982 C.3     1  UNL1        0.0639
     27 C          65.7792   91.9088   13.6363 C.3     1  UNL1        0.0071
     28 C          65.3565   92.3405   12.2634 C.3     1  UNL1        0.0004
     29 C          66.2019   91.4771   15.0092 C.3     1  UNL1        0.0004
     30 C          67.1614   92.4294   13.3745 C.3     1  UNL1        0.0004
@<TRIPOS>BOND
     1    23    24    1
     2    24    25    1
     3    24    22    1
     4    22    19    1
     5    19    20    1
     6    19    21    1
     7    19    18    1
     8    18     1    1
     9     1     2   ar
    10     2    26    1
    11    26    27    1
    12    27    28    1
    13    27    29    1
    14    27    30    1
    15     2     3   ar
    16     3     4   ar
    17     4     5   ar
    18     5     6   ar
    19     6    10    1
    20    10    11    2
    21    11    12    1
    22    12    13    2
    23    12    14   am
    24    14    15    1
    25     6     7   ar
    26     7     8   ar
    27     8     9   ar
    28     9     1   ar
    29     9     4   ar
    30    14    16    1
    31    15    17    1
@<TRIPOS>MOLECULE
*****
 30 31 0 0 0
SMALL
GASTEIGER

@<TRIPOS>ATOM
      1 N          65.4238   92.9742   12.5550 N.ar    1  UNL1       -0.3149
      2 C          65.6383   93.6142   11.2155 C.ar    1  UNL1        0.1203
      3 N          64.8945   92.8080   10.1923 N.ar    1  UNL1       -0.2310
      4 C          64.2203   91.6698   10.8995 C.ar    1  UNL1        0.0983
      5 C          63.3508   90.5532   10.4024 C.ar    1  UNL1        0.0206
      6 C          62.8085   89.5393   11.3657 C.ar    1  UNL1        0.0017
      7 C          63.1357   89.6420   12.8259 C.ar    1  UNL1        0.0016
      8 C          64.0052   90.7587   13.3230 C.ar    1  UNL1        0.0188
      9 C          64.5475   91.7726   12.3598 C.ar    1  UNL1        0.0786
     10 C          61.9390   88.4226   10.8686 C.2     1  UNL1        0.0048
     11 C          61.2777   88.5275    9.5264 C.2     1  UNL1        0.0598
     12 C          60.4081   87.4108    9.0294 C.2     1  UNL1        0.2679
     13 O          60.7396   85.9901    9.3781 O.2     1  UNL1       -0.2681
     14 N          59.2072   87.7149    8.1836 N.am    1  UNL1       -0.1934
     15 O          58.3378   86.5982    7.6867 O.3     1  UNL1       -0.2949
     16 H          58.9897   88.6474    7.9548 H       1  UNL1        0.1825
     17 H          58.6898   85.7504    8.0000 H       1  UNL1        0.2414
     18 C          65.9868   93.4520   13.8607 C.3     1  UNL1        0.1084
     19 C          67.0064   92.6244   14.5855 C.3     1  UNL1        0.0356
     20 C          67.7757   92.4542   13.3092 C.3     1  UNL1        0.0033
     21 C          66.2371   92.7947   15.8620 C.3     1  UNL1        0.0033
     22 C          68.0260   91.7969   15.3105 C.3     1  UNL1        0.0740
     23 C          69.9246   91.6600   17.0789 C.3     1  UNL1        0.0897
     24 N          69.0933   92.4658   16.1251 N.3     1  UNL1       -0.2703
     25 C          69.3293   93.9406   15.9857 C.3     1  UNL1        0.0897
     26 C          66.4534   94.8442   10.9463 C.3     1  UNL1        0.0639
     27 C          66.6306   95.3336    9.5395 C.3     1  UNL1        0.0071
     28 C          65.4865   96.2855    9.7266 C.3     1  UNL1        0.0004
     29 C          67.7746   94.3817    9.3525 C.3     1  UNL1        0.0004
     30 C          66.8078   95.8230    8.1327 C.3     1  UNL1        0.0004
@<TRIPOS>BOND
     1    23    24    1
     2    24    25    1
     3    24    22    1
     4    22    19    1
     5    19    20    1
     6    19    21    1
     7    19    18    1
     8    18     1    1
     9     1     2   ar
    10     2    26    1
    11    26    27    1
    12    27    28    1
    13    27    29    1
    14    27    30    1
    15     2     3   ar
    16     3     4   ar
    17     4     5   ar
    18     5     6   ar
    19     6    10    1
    20    10    11    2
    21    11    12    1
    22    12    13    2
    23    12    14   am
    24    14    15    1
    25     6     7   ar
    26     7     8   ar
    27     8     9   ar
    28     9     1   ar
    29     9     4   ar
    30    14    16    1
    31    15    17    1
@<TRIPOS>MOLECULE
*****
 30 31 0 0 0
SMALL
GASTEIGER

@<TRIPOS>ATOM
      1 N          62.2542   86.6633   11.4026 N.ar    1  UNL1       -0.3149
      2 C          61.7985   87.4965   10.2415 C.ar    1  UNL1        0.1203
      3 N          62.2538   88.9064   10.4758 N.ar    1  UNL1       -0.2310
      4 C          62.9909   88.9446   11.7817 C.ar    1  UNL1        0.0983
      5 C          63.6619   90.0625   12.5232 C.ar    1  UNL1        0.0206
      6 C          64.3332   89.7942   13.8374 C.ar    1  UNL1        0.0017
      7 C          64.3335   88.4078   14.4102 C.ar    1  UNL1        0.0016
      8 C          63.6625   87.2899   13.6687 C.ar    1  UNL1        0.0188
      9 C          62.9912   87.5582   12.3544 C.ar    1  UNL1        0.0786
     10 C          65.0042   90.9122   14.5790 C.2     1  UNL1        0.0048
     11 C          66.4833   91.1212   14.4426 C.2     1  UNL1        0.0598
     12 C          67.1543   92.2392   15.1842 C.2     1  UNL1        0.2679
     13 O          66.5258   92.7992   16.4257 O.2     1  UNL1       -0.2681
     14 N          68.4537   92.7972   14.6842 N.am    1  UNL1       -0.1934
     15 O          69.1247   93.9151   15.4257 O.3     1  UNL1       -0.2949
     16 H          68.8662   92.4297   13.8693 H       1  UNL1        0.1825
     17 H          68.5907   94.1568   16.1986 H       1  UNL1        0.2414
     18 C          62.0150   85.1932   11.5805 C.3     1  UNL1        0.1084
     19 C          63.0690   84.3329   12.2120 C.3     1  UNL1        0.0356
     20 C          63.8311   84.3181   10.9201 C.3     1  UNL1        0.0033
     21 C          62.3070   84.3476   13.5040 C.3     1  UNL1        0.0033
     22 C          64.1230   83.4725   12.8435 C.3     1  UNL1        0.0740
     23 C          64.0449   83.0972   15.4132 C.3     1  UNL1        0.0897
     24 N          64.6280   83.7931   14.2191 N.3     1  UNL1       -0.2703
     25 C          65.7160   84.8096   14.4006 C.3     1  UNL1        0.0897
     26 C          61.0235   87.0060    9.0546 C.3     1  UNL1        0.0639
     27 C          61.6408   86.0145    8.1135 C.3     1  UNL1        0.0071
     28 C          63.0043   86.3864    8.6160 C.3     1  UNL1        0.0004
     29 C          60.2774   85.6426    7.6109 C.3     1  UNL1        0.0004
     30 C          62.2582   85.0229    7.1723 C.3     1  UNL1        0.0004
@<TRIPOS>BOND
     1    23    24    1
     2    24    25    1
     3    24    22    1
     4    22    19    1
     5    19    20    1
     6    19    21    1
     7    19    18    1
     8    18     1    1
     9     1     2   ar
    10     2    26    1
    11    26    27    1
    12    27    28    1
    13    27    29    1
    14    27    30    1
    15     2     3   ar
    16     3     4   ar
    17     4     5   ar
    18     5     6   ar
    19     6    10    1
    20    10    11    2
    21    11    12    1
    22    12    13    2
    23    12    14   am
    24    14    15    1
    25     6     7   ar
    26     7     8   ar
    27     8     9   ar
    28     9     1   ar
    29     9     4   ar
    30    14    16    1
    31    15    17    1
