@<TRIPOS>MOLECULE
*****
 26 28 0 0 0
SMALL
GASTEIGER

@<TRIPOS>ATOM
      1 C          64.2228   85.0838   15.3144 C.2     1  UNL1        0.2320
      2 O          65.5569   85.5680   14.8287 O.2     1  UNL1       -0.2744
      3 N          63.1745   86.0708   15.7351 N.am    1  UNL1       -0.2639
      4 H          62.2989   85.7530   16.0539 H       1  UNL1        0.1567
      5 C          63.4602   87.5419   15.6702 C.ar    1  UNL1        0.1655
      6 N          64.2257   88.2444   14.5883 N.ar    1  UNL1       -0.2239
      7 C          64.2692   89.7054   14.9252 C.ar    1  UNL1        0.0899
      8 C          63.5306   89.9059   16.2153 C.ar    1  UNL1        0.0572
      9 S          63.0306   88.5687   16.6757 S.2     1  UNL1       -0.0508
     10 C          64.9345   90.7778   14.1144 C.ar    1  UNL1        0.0244
     11 C          64.3080   91.2486   12.8354 C.ar    1  UNL1        0.0224
     12 C          64.9732   92.3208   12.0246 C.ar    1  UNL1        0.1021
     13 N          66.2652   92.9225   12.4927 N.ar    1  UNL1       -0.2101
     14 C          66.8918   92.4517   13.7716 C.ar    1  UNL1        0.2250
     15 C          66.2264   91.3793   14.5825 C.ar    1  UNL1        0.0592
     16 O          68.1836   93.0532   14.2397 O.3     1  UNL1       -0.4561
     17 C          68.3596   93.4223   15.6829 C.3     1  UNL1        0.2542
     18 C          63.9371   83.6128   15.3793 C.3     1  UNL1        0.1118
     19 C          63.9004   82.5187   11.5646 C.ar    1  UNL1        0.1384
     20 C          62.9749   81.3394   11.6168 C.ar    1  UNL1        0.0369
     21 C          62.3702   80.9179   12.9232 C.ar    1  UNL1        0.0028
     22 C          62.6909   81.6756   14.1774 C.ar    1  UNL1       -0.0036
     23 C          63.6163   82.8549   14.1251 C.ar    1  UNL1       -0.0101
     24 C          64.2211   83.2765   12.8188 C.ar    1  UNL1        0.0331
     25 C          63.7898   83.9278    9.3846 C.3     1  UNL1        0.2525
     26 O          64.5051   82.9403   10.2582 O.3     1  UNL1       -0.4714
@<TRIPOS>BOND
     1    25    26    1
     2    26    19    1
     3    19    20   ar
     4    20    21   ar
     5    21    22   ar
     6    22    23   ar
     7    23    18    1
     8    18     1    1
     9     1     2    2
    10     1     3   am
    11     3     5    1
    12     5     6   ar
    13     6     7   ar
    14     7    10    1
    15    10    11   ar
    16    11    12   ar
    17    12    13   ar
    18    13    14   ar
    19    14    16    1
    20    16    17    1
    21    14    15   ar
    22     7     8   ar
    23     8     9   ar
    24    23    24   ar
    25    24    19   ar
    26     9     5   ar
    27    15    10   ar
    28     3     4    1
@<TRIPOS>MOLECULE
*****
 26 28 0 0 0
SMALL
GASTEIGER

@<TRIPOS>ATOM
      1 C          63.8125   89.6580   15.0218 C.2     1  UNL1        0.2320
      2 O          62.3784   89.5326   15.4433 O.2     1  UNL1       -0.2744
      3 N          64.6520   88.4278   14.8429 N.am    1  UNL1       -0.2639
      4 H          65.5932   88.5101   14.5662 H       1  UNL1        0.1567
      5 C          64.0573   87.0723   15.0855 C.ar    1  UNL1        0.1655
      6 N          63.8647   85.9972   14.0573 N.ar    1  UNL1       -0.2239
      7 C          63.2393   84.8143   14.7352 C.ar    1  UNL1        0.0899
      8 C          63.0453   85.1583   16.1823 C.ar    1  UNL1        0.0572
      9 S          63.5509   86.5538   16.3988 S.2     1  UNL1       -0.0508
     10 C          62.8722   83.5154   14.0809 C.ar    1  UNL1        0.0244
     11 C          62.0363   82.5130   14.8202 C.ar    1  UNL1        0.0224
     12 C          61.6692   81.2142   14.1660 C.ar    1  UNL1        0.1021
     13 N          62.1380   80.9176   12.7722 N.ar    1  UNL1       -0.2101
     14 C          62.9739   81.9200   12.0329 C.ar    1  UNL1        0.2250
     15 C          63.3409   83.2189   12.6872 C.ar    1  UNL1        0.0592
     16 O          63.4426   81.6234   10.6392 O.3     1  UNL1       -0.4561
     17 C          64.2325   82.6478    9.8797 C.3     1  UNL1        0.2542
     18 C          64.4071   91.0136   14.7792 C.3     1  UNL1        0.1118
     19 C          65.8406   93.0260   11.6735 C.ar    1  UNL1        0.1384
     20 C          64.9685   92.5040   10.5704 C.ar    1  UNL1        0.0369
     21 C          63.9092   91.4851   10.8703 C.ar    1  UNL1        0.0028
     22 C          63.7221   90.9883   12.2731 C.ar    1  UNL1       -0.0036
     23 C          64.5942   91.5104   13.3762 C.ar    1  UNL1       -0.0101
     24 C          65.6535   92.5292   13.0764 C.ar    1  UNL1        0.0331
     25 C          67.2786   94.3370    9.9520 C.3     1  UNL1        0.2525
     26 O          66.8999   94.0449   11.3737 O.3     1  UNL1       -0.4714
@<TRIPOS>BOND
     1    25    26    1
     2    26    19    1
     3    19    20   ar
     4    20    21   ar
     5    21    22   ar
     6    22    23   ar
     7    23    18    1
     8    18     1    1
     9     1     2    2
    10     1     3   am
    11     3     5    1
    12     5     6   ar
    13     6     7   ar
    14     7    10    1
    15    10    11   ar
    16    11    12   ar
    17    12    13   ar
    18    13    14   ar
    19    14    16    1
    20    16    17    1
    21    14    15   ar
    22     7     8   ar
    23     8     9   ar
    24    23    24   ar
    25    24    19   ar
    26     9     5   ar
    27    15    10   ar
    28     3     4    1
@<TRIPOS>MOLECULE
*****
 26 28 0 0 0
SMALL
GASTEIGER

@<TRIPOS>ATOM
      1 C          62.9732   84.6445   15.0820 C.2     1  UNL1        0.2320
      2 O          62.4173   85.2613   13.8328 O.2     1  UNL1       -0.2744
      3 N          63.5608   85.5166   16.1517 N.am    1  UNL1       -0.2639
      4 H          63.9256   85.1118   16.9716 H       1  UNL1        0.1567
      5 C          63.5924   87.0055   15.9722 C.ar    1  UNL1        0.1655
      6 N          64.2290   87.7427   14.8315 N.ar    1  UNL1       -0.2239
      7 C          64.0230   89.2114   15.0562 C.ar    1  UNL1        0.0899
      8 C          63.2591   89.3819   16.3358 C.ar    1  UNL1        0.0572
      9 S          62.9930   88.0186   16.9019 S.2     1  UNL1       -0.0508
     10 C          64.4976   90.3157   14.1588 C.ar    1  UNL1        0.0244
     11 C          65.6010   91.2265   14.6094 C.ar    1  UNL1        0.0224
     12 C          66.0756   92.3307   13.7122 C.ar    1  UNL1        0.1021
     13 N          65.4469   92.5243   12.3640 N.ar    1  UNL1       -0.2101
     14 C          64.3435   91.6136   11.9134 C.ar    1  UNL1        0.2250
     15 C          63.8689   90.5092   12.8108 C.ar    1  UNL1        0.0592
     16 O          63.7148   91.8071   10.5654 O.3     1  UNL1       -0.4561
     17 C          62.7409   90.7946   10.0397 C.3     1  UNL1        0.2542
     18 C          62.9416   83.1557   15.2615 C.3     1  UNL1        0.1118
     19 C          63.6029   81.7895   11.5946 C.ar    1  UNL1        0.1384
     20 C          62.9206   80.4554   11.6618 C.ar    1  UNL1        0.0369
     21 C          62.2453   80.0213   12.9289 C.ar    1  UNL1        0.0028
     22 C          62.2523   80.9214   14.1288 C.ar    1  UNL1       -0.0036
     23 C          62.9346   82.2555   14.0616 C.ar    1  UNL1       -0.0101
     24 C          63.6099   82.6896   12.7944 C.ar    1  UNL1        0.0331
     25 C          64.0061   83.5856    9.7612 C.3     1  UNL1        0.2525
     26 O          64.2781   82.2235   10.3274 O.3     1  UNL1       -0.4714
@<TRIPOS>BOND
     1    25    26    1
     2    26    19    1
     3    19    20   ar
     4    20    21   ar
     5    21    22   ar
     6    22    23   ar
     7    23    18    1
     8    18     1    1
     9     1     2    2
    10     1     3   am
    11     3     5    1
    12     5     6   ar
    13     6     7   ar
    14     7    10    1
    15    10    11   ar
    16    11    12   ar
    17    12    13   ar
    18    13    14   ar
    19    14    16    1
    20    16    17    1
    21    14    15   ar
    22     7     8   ar
    23     8     9   ar
    24    23    24   ar
    25    24    19   ar
    26     9     5   ar
    27    15    10   ar
    28     3     4    1
@<TRIPOS>MOLECULE
*****
 26 28 0 0 0
SMALL
GASTEIGER

@<TRIPOS>ATOM
      1 C          63.6015   89.4422   14.0205 C.2     1  UNL1        0.2320
      2 O          64.1819   88.1726   14.5693 O.2     1  UNL1       -0.2744
      3 N          62.8426   89.4221   12.7268 N.am    1  UNL1       -0.2639
      4 H          62.4616   90.2554   12.3666 H       1  UNL1        0.1567
      5 C          62.6640   88.1325   11.9819 C.ar    1  UNL1        0.1655
      6 N          63.0840   86.7737   12.4585 N.ar    1  UNL1       -0.2239
      7 C          62.7137   85.7766   11.4008 C.ar    1  UNL1        0.0899
      8 C          62.0648   86.5192   10.2705 C.ar    1  UNL1        0.0572
      9 S          62.0341   87.9752   10.6297 S.2     1  UNL1       -0.0508
     10 C          62.9507   84.2967   11.4626 C.ar    1  UNL1        0.0244
     11 C          63.5955   83.5915   10.3063 C.ar    1  UNL1        0.0224
     12 C          63.8325   82.1117   10.3680 C.ar    1  UNL1        0.1021
     13 N          63.4247   81.3369   11.5861 N.ar    1  UNL1       -0.2101
     14 C          62.7799   82.0421   12.7423 C.ar    1  UNL1        0.2250
     15 C          62.5429   83.5220   12.6806 C.ar    1  UNL1        0.0592
     16 O          62.3720   81.2674   13.9603 O.3     1  UNL1       -0.4561
     17 C          60.9269   80.9375   14.1902 C.3     1  UNL1        0.2542
     18 C          63.7800   90.7319   14.7654 C.3     1  UNL1        0.1118
     19 C          67.1627   92.2286   13.3276 C.ar    1  UNL1        0.1384
     20 C          67.6950   92.9388   14.5368 C.ar    1  UNL1        0.0369
     21 C          66.9223   92.9134   15.8222 C.ar    1  UNL1        0.0028
     22 C          65.6174   92.1777   15.8984 C.ar    1  UNL1       -0.0036
     23 C          65.0851   91.4675   14.6892 C.ar    1  UNL1       -0.0101
     24 C          65.8577   91.4930   13.4038 C.ar    1  UNL1        0.0331
     25 C          67.2488   92.6264   10.7616 C.3     1  UNL1        0.2525
     26 O          67.9354   92.2540   12.0422 O.3     1  UNL1       -0.4714
@<TRIPOS>BOND
     1    25    26    1
     2    26    19    1
     3    19    20   ar
     4    20    21   ar
     5    21    22   ar
     6    22    23   ar
     7    23    18    1
     8    18     1    1
     9     1     2    2
    10     1     3   am
    11     3     5    1
    12     5     6   ar
    13     6     7   ar
    14     7    10    1
    15    10    11   ar
    16    11    12   ar
    17    12    13   ar
    18    13    14   ar
    19    14    16    1
    20    16    17    1
    21    14    15   ar
    22     7     8   ar
    23     8     9   ar
    24    23    24   ar
    25    24    19   ar
    26     9     5   ar
    27    15    10   ar
    28     3     4    1
@<TRIPOS>MOLECULE
*****
 26 28 0 0 0
SMALL
GASTEIGER

@<TRIPOS>ATOM
      1 C          63.8058   89.3930   15.1846 C.2     1  UNL1        0.2320
      2 O          62.5989   89.0951   16.0239 O.2     1  UNL1       -0.2744
      3 N          64.5745   88.2711   14.5515 N.am    1  UNL1       -0.2639
      4 H          65.3667   88.4666   14.0006 H       1  UNL1        0.1567
      5 C          64.1363   86.8515   14.7578 C.ar    1  UNL1        0.1655
      6 N          63.8761   85.8434   13.6780 N.ar    1  UNL1       -0.2239
      7 C          63.4603   84.5596   14.3330 C.ar    1  UNL1        0.0899
      8 C          63.4634   84.7743   15.8176 C.ar    1  UNL1        0.0572
      9 S          63.8812   86.1908   16.0801 S.2     1  UNL1       -0.0508
     10 C          63.1038   83.2848   13.6273 C.ar    1  UNL1        0.0244
     11 C          63.6994   82.9788   12.2850 C.ar    1  UNL1        0.0224
     12 C          63.3431   81.7042   11.5793 C.ar    1  UNL1        0.1021
     13 N          62.3909   80.7354   12.2158 N.ar    1  UNL1       -0.2101
     14 C          61.7953   81.0414   13.5581 C.ar    1  UNL1        0.2250
     15 C          62.1518   82.3161   14.2638 C.ar    1  UNL1        0.0592
     16 O          60.8433   80.0727   14.1946 O.3     1  UNL1       -0.4561
     17 C          59.3702   80.3555   14.1891 C.3     1  UNL1        0.2542
     18 C          64.2441   90.8126   14.9783 C.3     1  UNL1        0.1118
     19 C          65.8042   92.8561   11.9550 C.ar    1  UNL1        0.1384
     20 C          64.9626   92.3633   10.8155 C.ar    1  UNL1        0.0369
     21 C          63.8814   91.3535   11.0635 C.ar    1  UNL1        0.0028
     22 C          63.6420   90.8366   12.4510 C.ar    1  UNL1       -0.0036
     23 C          64.4836   91.3295   13.5906 C.ar    1  UNL1       -0.0101
     24 C          65.5647   92.3392   13.3426 C.ar    1  UNL1        0.0331
     25 C          66.8493   94.7151   10.4711 C.3     1  UNL1        0.2525
     26 O          66.8853   93.8659   11.7070 O.3     1  UNL1       -0.4714
@<TRIPOS>BOND
     1    25    26    1
     2    26    19    1
     3    19    20   ar
     4    20    21   ar
     5    21    22   ar
     6    22    23   ar
     7    23    18    1
     8    18     1    1
     9     1     2    2
    10     1     3   am
    11     3     5    1
    12     5     6   ar
    13     6     7   ar
    14     7    10    1
    15    10    11   ar
    16    11    12   ar
    17    12    13   ar
    18    13    14   ar
    19    14    16    1
    20    16    17    1
    21    14    15   ar
    22     7     8   ar
    23     8     9   ar
    24    23    24   ar
    25    24    19   ar
    26     9     5   ar
    27    15    10   ar
    28     3     4    1
@<TRIPOS>MOLECULE
*****
 26 28 0 0 0
SMALL
GASTEIGER

@<TRIPOS>ATOM
      1 C          62.1395   86.6764   10.6164 C.2     1  UNL1        0.2320
      2 O          62.4588   87.2739    9.2781 O.2     1  UNL1       -0.2744
      3 N          62.2528   87.5120   11.8571 N.am    1  UNL1       -0.2639
      4 H          62.0432   87.1198   12.7355 H       1  UNL1        0.1567
      5 C          62.6853   88.9449   11.7594 C.ar    1  UNL1        0.1655
      6 N          63.8262   89.5741   12.5025 N.ar    1  UNL1       -0.2239
      7 C          63.8989   91.0183   12.1038 C.ar    1  UNL1        0.0899
      8 C          62.8028   91.2817   11.1142 C.ar    1  UNL1        0.0572
      9 S          62.0527   90.0003   10.9014 S.2     1  UNL1       -0.0508
     10 C          64.8931   92.0228   12.6064 C.ar    1  UNL1        0.0244
     11 C          65.3545   93.1342   11.7110 C.ar    1  UNL1        0.0224
     12 C          66.3487   94.1386   12.2135 C.ar    1  UNL1        0.1021
     13 N          66.8815   94.0318   13.6117 N.ar    1  UNL1       -0.2101
     14 C          66.4200   92.9204   14.5072 C.ar    1  UNL1        0.2250
     15 C          65.4258   91.9159   14.0046 C.ar    1  UNL1        0.0592
     16 O          66.9528   92.8135   15.9053 O.3     1  UNL1       -0.4561
     17 C          68.3786   92.4086   16.1357 C.3     1  UNL1        0.2542
     18 C          61.7070   85.2435   10.7141 C.3     1  UNL1        0.1118
     19 C          63.4895   82.9781   13.4420 C.ar    1  UNL1        0.1384
     20 C          64.4355   82.1921   12.5834 C.ar    1  UNL1        0.0369
     21 C          64.4721   82.4232   11.1018 C.ar    1  UNL1        0.0028
     22 C          63.5626   83.4403   10.4787 C.ar    1  UNL1       -0.0036
     23 C          62.6166   84.2263   11.3372 C.ar    1  UNL1       -0.0101
     24 C          62.5800   83.9952   12.8189 C.ar    1  UNL1        0.0331
     25 C          62.8343   83.7719   15.8275 C.3     1  UNL1        0.2525
     26 O          63.4530   82.7471   14.9236 O.3     1  UNL1       -0.4714
@<TRIPOS>BOND
     1    25    26    1
     2    26    19    1
     3    19    20   ar
     4    20    21   ar
     5    21    22   ar
     6    22    23   ar
     7    23    18    1
     8    18     1    1
     9     1     2    2
    10     1     3   am
    11     3     5    1
    12     5     6   ar
    13     6     7   ar
    14     7    10    1
    15    10    11   ar
    16    11    12   ar
    17    12    13   ar
    18    13    14   ar
    19    14    16    1
    20    16    17    1
    21    14    15   ar
    22     7     8   ar
    23     8     9   ar
    24    23    24   ar
    25    24    19   ar
    26     9     5   ar
    27    15    10   ar
    28     3     4    1
@<TRIPOS>MOLECULE
*****
 26 28 0 0 0
SMALL
GASTEIGER

@<TRIPOS>ATOM
      1 C          62.1128   86.6644   10.5686 C.2     1  UNL1        0.2320
      2 O          62.4589   87.2402    9.2274 O.2     1  UNL1       -0.2744
      3 N          62.1990   87.5207   11.7972 N.am    1  UNL1       -0.2639
      4 H          61.9718   87.1429   12.6775 H       1  UNL1        0.1567
      5 C          62.6312   88.9526   11.6846 C.ar    1  UNL1        0.1655
      6 N          63.7889   89.5830   12.4005 N.ar    1  UNL1       -0.2239
      7 C          63.8549   91.0256   11.9947 C.ar    1  UNL1        0.0899
      8 C          62.7380   91.2868   11.0281 C.ar    1  UNL1        0.0572
      9 S          61.9817   90.0056   10.8365 S.2     1  UNL1       -0.0508
     10 C          64.8611   92.0305   12.4718 C.ar    1  UNL1        0.0244
     11 C          65.3291   92.0050   13.8967 C.ar    1  UNL1        0.0224
     12 C          66.3352   93.0098   14.3739 C.ar    1  UNL1        0.1021
     13 N          66.8736   94.0404   13.4260 N.ar    1  UNL1       -0.2101
     14 C          66.4057   94.0659   12.0011 C.ar    1  UNL1        0.2250
     15 C          65.3994   93.0610   11.5240 C.ar    1  UNL1        0.0592
     16 O          66.9440   95.0964   11.0533 O.3     1  UNL1       -0.4561
     17 C          67.3307   94.7031    9.6583 C.3     1  UNL1        0.2542
     18 C          61.6805   85.2325   10.6812 C.3     1  UNL1        0.1118
     19 C          63.4471   82.9536   13.4081 C.ar    1  UNL1        0.1384
     20 C          64.4214   82.1956   12.5559 C.ar    1  UNL1        0.0369
     21 C          64.4821   82.4499   11.0789 C.ar    1  UNL1        0.0028
     22 C          63.5685   83.4622   10.4540 C.ar    1  UNL1       -0.0036
     23 C          62.5942   84.2202   11.3061 C.ar    1  UNL1       -0.0101
     24 C          62.5335   83.9659   12.7831 C.ar    1  UNL1        0.0331
     25 C          63.1282   83.8340   15.8315 C.3     1  UNL1        0.2525
     26 O          63.3864   82.6993   14.8851 O.3     1  UNL1       -0.4714
@<TRIPOS>BOND
     1    25    26    1
     2    26    19    1
     3    19    20   ar
     4    20    21   ar
     5    21    22   ar
     6    22    23   ar
     7    23    18    1
     8    18     1    1
     9     1     2    2
    10     1     3   am
    11     3     5    1
    12     5     6   ar
    13     6     7   ar
    14     7    10    1
    15    10    11   ar
    16    11    12   ar
    17    12    13   ar
    18    13    14   ar
    19    14    16    1
    20    16    17    1
    21    14    15   ar
    22     7     8   ar
    23     8     9   ar
    24    23    24   ar
    25    24    19   ar
    26     9     5   ar
    27    15    10   ar
    28     3     4    1
@<TRIPOS>MOLECULE
*****
 26 28 0 0 0
SMALL
GASTEIGER

@<TRIPOS>ATOM
      1 C          62.2933   86.4656   10.9393 C.2     1  UNL1        0.2320
      2 O          62.6609   86.7183    9.5072 O.2     1  UNL1       -0.2744
      3 N          62.3041   87.5946   11.9269 N.am    1  UNL1       -0.2639
      4 H          62.0629   87.4287   12.8668 H       1  UNL1        0.1567
      5 C          62.6826   88.9763   11.4823 C.ar    1  UNL1        0.1655
      6 N          63.7934   89.8109   12.0473 N.ar    1  UNL1       -0.2239
      7 C          63.8140   91.1164   11.3089 C.ar    1  UNL1        0.0899
      8 C          62.7158   91.0887   10.2875 C.ar    1  UNL1        0.0572
      9 S          62.0165   89.7660   10.3947 S.2     1  UNL1       -0.0508
     10 C          64.7657   92.2506   11.5496 C.ar    1  UNL1        0.0244
     11 C          65.3772   92.4417   12.9059 C.ar    1  UNL1        0.0224
     12 C          66.3288   93.5758   13.1467 C.ar    1  UNL1        0.1021
     13 N          66.6691   94.5191   12.0310 N.ar    1  UNL1       -0.2101
     14 C          66.0576   94.3280   10.6747 C.ar    1  UNL1        0.2250
     15 C          65.1059   93.1938   10.4340 C.ar    1  UNL1        0.0592
     16 O          66.3978   95.2712    9.5591 O.3     1  UNL1       -0.4561
     17 C          67.5079   94.9375    8.6071 C.3     1  UNL1        0.2542
     18 C          61.9149   85.0839   11.3838 C.3     1  UNL1        0.1118
     19 C          63.3756   82.2652   13.7653 C.ar    1  UNL1        0.1384
     20 C          64.1870   83.0917   14.7183 C.ar    1  UNL1        0.0369
     21 C          64.2410   84.5824   14.5599 C.ar    1  UNL1        0.0028
     22 C          63.4837   85.2464   13.4484 C.ar    1  UNL1       -0.0036
     23 C          62.6723   84.4198   12.4954 C.ar    1  UNL1       -0.0101
     24 C          62.6182   82.9292   12.6538 C.ar    1  UNL1        0.0331
     25 C          62.1383   80.0083   13.4113 C.3     1  UNL1        0.2525
     26 O          63.3215   80.7745   13.9237 O.3     1  UNL1       -0.4714
@<TRIPOS>BOND
     1    25    26    1
     2    26    19    1
     3    19    20   ar
     4    20    21   ar
     5    21    22   ar
     6    22    23   ar
     7    23    18    1
     8    18     1    1
     9     1     2    2
    10     1     3   am
    11     3     5    1
    12     5     6   ar
    13     6     7   ar
    14     7    10    1
    15    10    11   ar
    16    11    12   ar
    17    12    13   ar
    18    13    14   ar
    19    14    16    1
    20    16    17    1
    21    14    15   ar
    22     7     8   ar
    23     8     9   ar
    24    23    24   ar
    25    24    19   ar
    26     9     5   ar
    27    15    10   ar
    28     3     4    1
@<TRIPOS>MOLECULE
*****
 26 28 0 0 0
SMALL
GASTEIGER

@<TRIPOS>ATOM
      1 C          62.5167   86.9450   11.7093 C.2     1  UNL1        0.2320
      2 O          63.3928   86.8626   12.9240 O.2     1  UNL1       -0.2744
      3 N          62.3190   88.2599   11.0149 N.am    1  UNL1       -0.2639
      4 H          61.7440   88.3140   10.2176 H       1  UNL1        0.1567
      5 C          62.9975   89.4923   11.5353 C.ar    1  UNL1        0.1655
      6 N          63.6927   89.6242   12.8578 N.ar    1  UNL1       -0.2239
      7 C          64.2248   91.0226   12.9644 C.ar    1  UNL1        0.0899
      8 C          63.8584   91.7550   11.7077 C.ar    1  UNL1        0.0572
      9 S          63.0999   90.8092   10.8244 S.2     1  UNL1       -0.0508
     10 C          64.9891   91.5891   14.1242 C.ar    1  UNL1        0.0244
     11 C          64.3593   91.6395   15.4846 C.ar    1  UNL1        0.0224
     12 C          65.1235   92.2060   16.6443 C.ar    1  UNL1        0.1021
     13 N          66.5176   92.7222   16.4436 N.ar    1  UNL1       -0.2101
     14 C          67.1473   92.6718   15.0831 C.ar    1  UNL1        0.2250
     15 C          66.3831   92.1053   13.9234 C.ar    1  UNL1        0.0592
     16 O          68.5413   93.1880   14.8824 O.3     1  UNL1       -0.4561
     17 C          69.1717   94.0687   15.9202 C.3     1  UNL1        0.2542
     18 C          61.8382   85.7126   11.1889 C.3     1  UNL1        0.1118
     19 C          63.0937   82.1195   12.3127 C.ar    1  UNL1        0.1384
     20 C          64.0187   81.7762   11.1829 C.ar    1  UNL1        0.0369
     21 C          64.2168   82.7451   10.0550 C.ar    1  UNL1        0.0028
     22 C          63.4900   84.0572   10.0570 C.ar    1  UNL1       -0.0036
     23 C          62.5651   84.4005   11.1869 C.ar    1  UNL1       -0.0101
     24 C          62.3669   83.4316   12.3147 C.ar    1  UNL1        0.0331
     25 C          61.5569   81.0405   14.1083 C.3     1  UNL1        0.2525
     26 O          62.8955   81.1506   13.4406 O.3     1  UNL1       -0.4714
@<TRIPOS>BOND
     1    25    26    1
     2    26    19    1
     3    19    20   ar
     4    20    21   ar
     5    21    22   ar
     6    22    23   ar
     7    23    18    1
     8    18     1    1
     9     1     2    2
    10     1     3   am
    11     3     5    1
    12     5     6   ar
    13     6     7   ar
    14     7    10    1
    15    10    11   ar
    16    11    12   ar
    17    12    13   ar
    18    13    14   ar
    19    14    16    1
    20    16    17    1
    21    14    15   ar
    22     7     8   ar
    23     8     9   ar
    24    23    24   ar
    25    24    19   ar
    26     9     5   ar
    27    15    10   ar
    28     3     4    1
