@<TRIPOS>MOLECULE
*****
 29 31 0 0 0
SMALL
GASTEIGER

@<TRIPOS>ATOM
      1 C          64.8020   91.7125   11.9005 C.ar    1  UNL1        0.1534
      2 C          63.8195   91.5761   10.7753 C.ar    1  UNL1        0.0351
      3 C          62.8301   90.4487   10.7762 C.ar    1  UNL1        0.0722
      4 CL         61.8475   90.3122    9.6511 Cl      1  UNL1       -0.0809
      5 C          62.8233   89.4577   11.9022 C.ar    1  UNL1        0.0577
      6 C          63.8059   89.5941   13.0274 C.ar    1  UNL1        0.0462
      7 C          64.7952   90.7216   13.0265 C.ar    1  UNL1        0.1602
      8 F          65.7778   90.8581   14.1517 F       1  UNL1       -0.2027
      9 O          65.3165   93.2578   13.2597 O.2     1  UNL1       -0.1498
     10 S          65.7914   92.8400   11.8996 S.O2    1  UNL1        0.0772
     11 O          66.2664   92.4223   10.5396 O.2     1  UNL1       -0.1498
     12 N          66.7808   93.9675   11.8988 N.pl3   1  UNL1       -0.1936
     13 H          67.4476   94.0377   12.6197 H       1  UNL1        0.1758
     14 C          66.7541   94.9880   10.7997 C.ar    1  UNL1        0.1786
     15 N          67.7494   95.1084    9.6840 N.ar    1  UNL1       -0.2214
     16 C          67.3379   96.2620    8.8182 C.ar    1  UNL1        0.1079
     17 C          66.0881   96.8546    9.3988 C.ar    1  UNL1        0.0588
     18 S          65.7273   96.0672   10.6235 S.2     1  UNL1       -0.0497
     19 N          61.8339   88.3302   11.9031 N.pl3   1  UNL1       -0.3319
     20 H          61.0591   88.3556   12.5099 H       1  UNL1        0.1468
     21 C          62.0250   87.1640   10.9793 C.3     1  UNL1        0.0870
     22 C          61.6857   85.7778   11.4413 C.3     1  UNL1        0.0213
     23 C          62.7546   84.7278   11.5111 C.3     1  UNL1        0.0044
     24 C          63.3293   84.3295   12.8382 C.3     1  UNL1        0.0172
     25 C          64.3982   83.2796   12.9080 C.3     1  UNL1        0.0686
     26 N          64.8925   82.6278   11.6506 N.3     1  UNL1       -0.2975
     27 C          64.3179   83.0260   10.3235 C.3     1  UNL1        0.0686
     28 C          63.2489   84.0761   10.2538 C.3     1  UNL1        0.0172
     29 H          64.7285   81.6264   11.7539 H       1  UNL1        0.1232
@<TRIPOS>BOND
     1     9    10    2
     2    10    11    2
     3    10    12    1
     4    12    14    1
     5    14    15   ar
     6    15    16   ar
     7    16    17   ar
     8    17    18   ar
     9    10     1    1
    10     1     2   ar
    11     2     3   ar
    12     3     4    1
    13     3     5   ar
    14     5    19    1
    15    19    21    1
    16    21    22    1
    17    22    23    1
    18    23    24    1
    19    24    25    1
    20    25    26    1
    21    26    27    1
    22    27    28    1
    23     5     6   ar
    24     6     7   ar
    25     7     8    1
    26    18    14   ar
    27     7     1   ar
    28    28    23    1
    29    12    13    1
    30    19    20    1
    31    26    29    1
@<TRIPOS>MOLECULE
*****
 29 31 0 0 0
SMALL
GASTEIGER

@<TRIPOS>ATOM
      1 C          63.4606   90.7049   11.7781 C.ar    1  UNL1        0.1534
      2 C          62.4182   90.7740   10.7018 C.ar    1  UNL1        0.0351
      3 C          61.4956   89.6132   10.4757 C.ar    1  UNL1        0.0722
      4 CL         60.4531   89.6822    9.3993 Cl      1  UNL1       -0.0809
      5 C          61.6154   88.3832   11.3259 C.ar    1  UNL1        0.0577
      6 C          62.6578   88.3141   12.4022 C.ar    1  UNL1        0.0462
      7 C          63.5804   89.4750   12.6284 C.ar    1  UNL1        0.1602
      8 F          64.6229   89.4059   13.7048 F       1  UNL1       -0.2027
      9 O          64.7857   91.8274   10.5598 O.2     1  UNL1       -0.1498
     10 S          64.3833   91.8658   12.0043 S.O2    1  UNL1        0.0772
     11 O          63.9810   91.9042   13.4488 O.2     1  UNL1       -0.1498
     12 N          65.3060   93.0266   12.2304 N.pl3   1  UNL1       -0.1936
     13 H          65.2426   93.8247   11.6574 H       1  UNL1        0.1758
     14 C          66.3253   92.9715   13.3295 C.ar    1  UNL1        0.1786
     15 N          66.4124   93.9068   14.4990 N.ar    1  UNL1       -0.2214
     16 C          67.5774   93.4848   15.3443 C.ar    1  UNL1        0.1079
     17 C          68.2103   92.2885   14.6974 C.ar    1  UNL1        0.0588
     18 S          67.4364   91.9713   13.4521 S.2     1  UNL1       -0.0497
     19 N          60.6927   87.2223   11.0997 N.pl3   1  UNL1       -0.3319
     20 H          59.8862   87.1192   11.6548 H       1  UNL1        0.1468
     21 C          60.9989   86.2187   10.0279 C.3     1  UNL1        0.0870
     22 C          62.4081   85.7474    9.8221 C.3     1  UNL1        0.0213
     23 C          62.9498   84.6191   10.6488 C.3     1  UNL1        0.0044
     24 C          62.6557   84.5575   12.1184 C.3     1  UNL1        0.0172
     25 C          63.1974   83.4292   12.9451 C.3     1  UNL1        0.0686
     26 N          64.0333   82.3624   12.3021 N.3     1  UNL1       -0.2975
     27 C          64.3274   82.4239   10.8325 C.3     1  UNL1        0.0686
     28 C          63.7856   83.5523   10.0059 C.3     1  UNL1        0.0172
     29 H          63.5590   81.4752   12.4706 H       1  UNL1        0.1232
@<TRIPOS>BOND
     1     9    10    2
     2    10    11    2
     3    10    12    1
     4    12    14    1
     5    14    15   ar
     6    15    16   ar
     7    16    17   ar
     8    17    18   ar
     9    10     1    1
    10     1     2   ar
    11     2     3   ar
    12     3     4    1
    13     3     5   ar
    14     5    19    1
    15    19    21    1
    16    21    22    1
    17    22    23    1
    18    23    24    1
    19    24    25    1
    20    25    26    1
    21    26    27    1
    22    27    28    1
    23     5     6   ar
    24     6     7   ar
    25     7     8    1
    26    18    14   ar
    27     7     1   ar
    28    28    23    1
    29    12    13    1
    30    19    20    1
    31    26    29    1
@<TRIPOS>MOLECULE
*****
 29 31 0 0 0
SMALL
GASTEIGER

@<TRIPOS>ATOM
      1 C          63.8326   86.3441   15.5681 C.ar    1  UNL1        0.1534
      2 C          64.1575   87.2282   14.4007 C.ar    1  UNL1        0.0351
      3 C          63.9774   88.7132   14.5116 C.ar    1  UNL1        0.0722
      4 CL         64.3023   89.5973   13.3442 Cl      1  UNL1       -0.0809
      5 C          63.4725   89.3141   15.7899 C.ar    1  UNL1        0.0577
      6 C          63.1476   88.4300   16.9573 C.ar    1  UNL1        0.0462
      7 C          63.3277   86.9450   16.8464 C.ar    1  UNL1        0.1602
      8 F          63.0028   86.0608   18.0138 F       1  UNL1       -0.2027
      9 O          65.4323   85.0639   15.0188 O.2     1  UNL1       -0.1498
     10 S          64.0126   84.8590   15.4573 S.O2    1  UNL1        0.0772
     11 O          62.5929   84.6541   15.8957 O.2     1  UNL1       -0.1498
     12 N          64.1927   83.3740   15.3464 N.pl3   1  UNL1       -0.1936
     13 H          64.7785   82.9005   15.9803 H       1  UNL1        0.1758
     14 C          63.4802   82.6104   14.2696 C.ar    1  UNL1        0.1786
     15 N          62.4629   81.5287   14.4816 N.ar    1  UNL1       -0.2214
     16 C          62.0140   81.0443   13.1348 C.ar    1  UNL1        0.1079
     17 C          62.7538   81.8266   12.0905 C.ar    1  UNL1        0.0588
     18 S          63.6600   82.7946   12.7919 S.2     1  UNL1       -0.0497
     19 N          63.2925   90.7991   15.9008 N.pl3   1  UNL1       -0.3319
     20 H          62.5707   91.2461   15.4022 H       1  UNL1        0.1468
     21 C          64.2121   91.6032   16.7712 C.3     1  UNL1        0.0870
     22 C          64.9595   92.7698   16.1964 C.3     1  UNL1        0.0213
     23 C          66.2763   92.5531   15.5115 C.3     1  UNL1        0.0044
     24 C          66.3130   92.1485   14.0675 C.3     1  UNL1        0.0172
     25 C          67.6298   91.9317   13.3826 C.3     1  UNL1        0.0686
     26 N          68.9099   92.1195   14.1417 N.3     1  UNL1       -0.2975
     27 C          68.8732   92.5241   15.5856 C.3     1  UNL1        0.0686
     28 C          67.5563   92.7408   16.2705 C.3     1  UNL1        0.0172
     29 H          69.4422   92.8363   13.6485 H       1  UNL1        0.1232
@<TRIPOS>BOND
     1     9    10    2
     2    10    11    2
     3    10    12    1
     4    12    14    1
     5    14    15   ar
     6    15    16   ar
     7    16    17   ar
     8    17    18   ar
     9    10     1    1
    10     1     2   ar
    11     2     3   ar
    12     3     4    1
    13     3     5   ar
    14     5    19    1
    15    19    21    1
    16    21    22    1
    17    22    23    1
    18    23    24    1
    19    24    25    1
    20    25    26    1
    21    26    27    1
    22    27    28    1
    23     5     6   ar
    24     6     7   ar
    25     7     8    1
    26    18    14   ar
    27     7     1   ar
    28    28    23    1
    29    12    13    1
    30    19    20    1
    31    26    29    1
@<TRIPOS>MOLECULE
*****
 29 31 0 0 0
SMALL
GASTEIGER

@<TRIPOS>ATOM
      1 C          63.5349   90.8405   11.6653 C.ar    1  UNL1        0.1534
      2 C          62.4721   90.8581   10.6069 C.ar    1  UNL1        0.0351
      3 C          61.5300   89.6989   10.4709 C.ar    1  UNL1        0.0722
      4 CL         60.4671   89.7164    9.4125 Cl      1  UNL1       -0.0809
      5 C          61.6506   88.5221   11.3933 C.ar    1  UNL1        0.0577
      6 C          62.7133   88.5046   12.4516 C.ar    1  UNL1        0.0462
      7 C          63.6555   89.6637   12.5876 C.ar    1  UNL1        0.1602
      8 F          64.7184   89.6462   13.6460 F       1  UNL1       -0.2027
      9 O          64.6650   92.0216   10.3133 O.2     1  UNL1       -0.1498
     10 S          64.4771   91.9997   11.8013 S.O2    1  UNL1        0.0772
     11 O          64.2893   91.9778   13.2893 O.2     1  UNL1       -0.1498
     12 N          65.4193   93.1589   11.9373 N.pl3   1  UNL1       -0.1936
     13 H          65.3176   93.7908   12.6854 H       1  UNL1        0.1758
     14 C          66.5165   93.3554   10.9335 C.ar    1  UNL1        0.1786
     15 N          67.6514   92.4102   10.6713 N.ar    1  UNL1       -0.2214
     16 C          68.5077   93.0022    9.5914 C.ar    1  UNL1        0.1079
     17 C          67.9021   94.3134    9.1861 C.ar    1  UNL1        0.0588
     18 S          66.6714   94.5317   10.0157 S.2     1  UNL1       -0.0497
     19 N          60.7083   87.3629   11.2572 N.pl3   1  UNL1       -0.3319
     20 H          59.9342   87.2844   11.8603 H       1  UNL1        0.1468
     21 C          60.9456   86.3233   10.2023 C.3     1  UNL1        0.0870
     22 C          62.3393   85.8456    9.9201 C.3     1  UNL1        0.0213
     23 C          62.9124   84.7008   10.7017 C.3     1  UNL1        0.0044
     24 C          63.7257   83.6500   10.0057 C.3     1  UNL1        0.0172
     25 C          64.2988   82.5052   10.7873 C.3     1  UNL1        0.0686
     26 N          64.0585   82.4111   12.2650 N.3     1  UNL1       -0.2975
     27 C          63.2451   83.4618   12.9610 C.3     1  UNL1        0.0686
     28 C          62.6721   84.6067   12.1793 C.3     1  UNL1        0.0172
     29 H          64.9751   82.4038   12.7125 H       1  UNL1        0.1232
@<TRIPOS>BOND
     1     9    10    2
     2    10    11    2
     3    10    12    1
     4    12    14    1
     5    14    15   ar
     6    15    16   ar
     7    16    17   ar
     8    17    18   ar
     9    10     1    1
    10     1     2   ar
    11     2     3   ar
    12     3     4    1
    13     3     5   ar
    14     5    19    1
    15    19    21    1
    16    21    22    1
    17    22    23    1
    18    23    24    1
    19    24    25    1
    20    25    26    1
    21    26    27    1
    22    27    28    1
    23     5     6   ar
    24     6     7   ar
    25     7     8    1
    26    18    14   ar
    27     7     1   ar
    28    28    23    1
    29    12    13    1
    30    19    20    1
    31    26    29    1
@<TRIPOS>MOLECULE
*****
 29 31 0 0 0
SMALL
GASTEIGER

@<TRIPOS>ATOM
      1 C          62.6285   89.8180   11.9297 C.ar    1  UNL1        0.1534
      2 C          63.1625   89.7600   13.3302 C.ar    1  UNL1        0.0351
      3 C          64.2459   90.7044   13.7594 C.ar    1  UNL1        0.0722
      4 CL         64.7799   90.6465   15.1600 Cl      1  UNL1       -0.0809
      5 C          64.7953   91.7068   12.7881 C.ar    1  UNL1        0.0577
      6 C          64.2613   91.7647   11.3876 C.ar    1  UNL1        0.0462
      7 C          63.1779   90.8203   10.9584 C.ar    1  UNL1        0.1602
      8 F          62.6439   90.8782    9.5578 F       1  UNL1       -0.2027
      9 O          60.5472   89.6526   12.3049 O.2     1  UNL1       -0.1498
     10 S          61.5450   88.8735   11.5004 S.O2    1  UNL1        0.0772
     11 O          62.5429   88.0944   10.6959 O.2     1  UNL1       -0.1498
     12 N          60.4616   87.9291   11.0712 N.pl3   1  UNL1       -0.1936
     13 H          60.0377   87.3338   11.7308 H       1  UNL1        0.1758
     14 C          60.0240   87.8918    9.6368 C.ar    1  UNL1        0.1786
     15 N          59.8034   89.0820    8.7511 N.ar    1  UNL1       -0.2214
     16 C          59.3733   88.5834    7.4033 C.ar    1  UNL1        0.1079
     17 C          59.3281   87.0850    7.4561 C.ar    1  UNL1        0.0588
     18 S          59.7303   86.6575    8.8366 S.2     1  UNL1       -0.0497
     19 N          65.8787   92.6512   13.2174 N.pl3   1  UNL1       -0.3319
     20 H          66.1045   92.7405   14.1715 H       1  UNL1        0.1468
     21 C          66.6183   93.4597   12.1930 C.3     1  UNL1        0.0870
     22 C          66.1763   94.8585   11.8797 C.3     1  UNL1        0.0213
     23 C          66.1658   95.3414   10.4596 C.3     1  UNL1        0.0044
     24 C          67.1540   94.7928    9.4735 C.3     1  UNL1        0.0172
     25 C          67.1435   95.2756    8.0534 C.3     1  UNL1        0.0686
     26 N          66.1447   96.3072    7.6194 N.3     1  UNL1       -0.2975
     27 C          65.1564   96.8558    8.6054 C.3     1  UNL1        0.0686
     28 C          65.1670   96.3729   10.0256 C.3     1  UNL1        0.0172
     29 H          65.6040   95.8925    6.8603 H       1  UNL1        0.1232
@<TRIPOS>BOND
     1     9    10    2
     2    10    11    2
     3    10    12    1
     4    12    14    1
     5    14    15   ar
     6    15    16   ar
     7    16    17   ar
     8    17    18   ar
     9    10     1    1
    10     1     2   ar
    11     2     3   ar
    12     3     4    1
    13     3     5   ar
    14     5    19    1
    15    19    21    1
    16    21    22    1
    17    22    23    1
    18    23    24    1
    19    24    25    1
    20    25    26    1
    21    26    27    1
    22    27    28    1
    23     5     6   ar
    24     6     7   ar
    25     7     8    1
    26    18    14   ar
    27     7     1   ar
    28    28    23    1
    29    12    13    1
    30    19    20    1
    31    26    29    1
@<TRIPOS>MOLECULE
*****
 29 31 0 0 0
SMALL
GASTEIGER

@<TRIPOS>ATOM
      1 C          65.5618   92.1476   13.0523 C.ar    1  UNL1        0.1534
      2 C          64.3837   91.5878   12.3117 C.ar    1  UNL1        0.0351
      3 C          63.7593   90.2997   12.7596 C.ar    1  UNL1        0.0722
      4 CL         62.5811   89.7399   12.0189 Cl      1  UNL1       -0.0809
      5 C          64.3129   89.5713   13.9483 C.ar    1  UNL1        0.0577
      6 C          65.4911   90.1310   14.6889 C.ar    1  UNL1        0.0462
      7 C          66.1155   91.4192   14.2410 C.ar    1  UNL1        0.1602
      8 F          67.2937   91.9790   14.9817 F       1  UNL1       -0.2027
      9 O          66.4743   92.8296   11.2629 O.2     1  UNL1       -0.1498
     10 S          66.1863   93.4358   12.6044 S.O2    1  UNL1        0.0772
     11 O          65.8984   94.0419   13.9458 O.2     1  UNL1       -0.1498
     12 N          66.8108   94.7239   12.1564 N.pl3   1  UNL1       -0.1936
     13 H          67.2324   95.3218   12.8152 H       1  UNL1        0.1758
     14 C          66.7930   95.1010   10.7046 C.ar    1  UNL1        0.1786
     15 N          67.7980   94.6829    9.6726 N.ar    1  UNL1       -0.2214
     16 C          67.3931   95.2860    8.3602 C.ar    1  UNL1        0.1079
     17 C          66.1377   96.0769    8.5812 C.ar    1  UNL1        0.0588
     18 S          65.7668   95.9626   10.0302 S.2     1  UNL1       -0.0497
     19 N          63.6884   88.2831   14.3962 N.pl3   1  UNL1       -0.3319
     20 H          62.7086   88.1869   14.4021 H       1  UNL1        0.1468
     21 C          64.5567   87.1415   14.8352 C.3     1  UNL1        0.0870
     22 C          63.9533   85.9770   15.5632 C.3     1  UNL1        0.0213
     23 C          63.6716   84.6988   14.8305 C.3     1  UNL1        0.0044
     24 C          62.5472   83.8113   15.2755 C.3     1  UNL1        0.0172
     25 C          62.2655   82.5331   14.5428 C.3     1  UNL1        0.0686
     26 N          63.1084   82.1423   13.3651 N.3     1  UNL1       -0.2975
     27 C          64.2328   83.0298   12.9201 C.3     1  UNL1        0.0686
     28 C          64.5144   84.3081   13.6529 C.3     1  UNL1        0.0172
     29 H          62.4768   82.0462   12.5700 H       1  UNL1        0.1232
@<TRIPOS>BOND
     1     9    10    2
     2    10    11    2
     3    10    12    1
     4    12    14    1
     5    14    15   ar
     6    15    16   ar
     7    16    17   ar
     8    17    18   ar
     9    10     1    1
    10     1     2   ar
    11     2     3   ar
    12     3     4    1
    13     3     5   ar
    14     5    19    1
    15    19    21    1
    16    21    22    1
    17    22    23    1
    18    23    24    1
    19    24    25    1
    20    25    26    1
    21    26    27    1
    22    27    28    1
    23     5     6   ar
    24     6     7   ar
    25     7     8    1
    26    18    14   ar
    27     7     1   ar
    28    28    23    1
    29    12    13    1
    30    19    20    1
    31    26    29    1
@<TRIPOS>MOLECULE
*****
 29 31 0 0 0
SMALL
GASTEIGER

@<TRIPOS>ATOM
      1 C          63.1169   89.0146   12.3084 C.ar    1  UNL1        0.1534
      2 C          62.3228   88.8700   11.0441 C.ar    1  UNL1        0.0351
      3 C          62.0075   87.5048   10.5085 C.ar    1  UNL1        0.0722
      4 CL         61.2134   87.3601    9.2442 Cl      1  UNL1       -0.0809
      5 C          62.4863   86.2843   11.2373 C.ar    1  UNL1        0.0577
      6 C          63.2804   86.4289   12.5015 C.ar    1  UNL1        0.0462
      7 C          63.5957   87.7940   13.0371 C.ar    1  UNL1        0.1602
      8 F          64.3898   87.9387   14.3015 F       1  UNL1       -0.2027
      9 O          63.9395   90.7922   11.4941 O.2     1  UNL1       -0.1498
     10 S          63.4322   90.3798   12.8440 S.O2    1  UNL1        0.0772
     11 O          62.9249   89.9674   14.1940 O.2     1  UNL1       -0.1498
     12 N          63.7476   91.7449   13.3796 N.pl3   1  UNL1       -0.1936
     13 H          63.0971   92.4766   13.2761 H       1  UNL1        0.1758
     14 C          65.0540   91.9953   14.0728 C.ar    1  UNL1        0.1786
     15 N          65.2378   92.2652   15.5368 N.ar    1  UNL1       -0.2214
     16 C          66.7034   92.4564   15.7925 C.ar    1  UNL1        0.1079
     17 C          67.4255   92.3047   14.4865 C.ar    1  UNL1        0.0588
     18 S          66.4061   92.0197   13.4236 S.2     1  UNL1       -0.0497
     19 N          62.1710   84.9190   10.7016 N.pl3   1  UNL1       -0.3319
     20 H          61.2558   84.5626   10.7703 H       1  UNL1        0.1468
     21 C          63.2500   84.0969   10.0614 C.3     1  UNL1        0.0870
     22 C          63.9785   83.0598   10.8638 C.3     1  UNL1        0.0213
     23 C          63.5445   82.7558   12.2670 C.3     1  UNL1        0.0044
     24 C          62.3709   81.8538   12.5103 C.3     1  UNL1        0.0172
     25 C          61.9369   81.5497   13.9135 C.3     1  UNL1        0.0686
     26 N          62.6764   82.1476   15.0736 N.3     1  UNL1       -0.2975
     27 C          63.8499   83.0496   14.8303 C.3     1  UNL1        0.0686
     28 C          64.2840   83.3537   13.4270 C.3     1  UNL1        0.0172
     29 H          63.0154   81.3695   15.6393 H       1  UNL1        0.1232
@<TRIPOS>BOND
     1     9    10    2
     2    10    11    2
     3    10    12    1
     4    12    14    1
     5    14    15   ar
     6    15    16   ar
     7    16    17   ar
     8    17    18   ar
     9    10     1    1
    10     1     2   ar
    11     2     3   ar
    12     3     4    1
    13     3     5   ar
    14     5    19    1
    15    19    21    1
    16    21    22    1
    17    22    23    1
    18    23    24    1
    19    24    25    1
    20    25    26    1
    21    26    27    1
    22    27    28    1
    23     5     6   ar
    24     6     7   ar
    25     7     8    1
    26    18    14   ar
    27     7     1   ar
    28    28    23    1
    29    12    13    1
    30    19    20    1
    31    26    29    1
@<TRIPOS>MOLECULE
*****
 29 31 0 0 0
SMALL
GASTEIGER

@<TRIPOS>ATOM
      1 C          63.6628   86.4951   13.6987 C.ar    1  UNL1        0.1534
      2 C          63.0849   86.7595   12.3400 C.ar    1  UNL1        0.0351
      3 C          62.9178   88.1699   11.8576 C.ar    1  UNL1        0.0722
      4 CL         62.3399   88.4343   10.4988 Cl      1  UNL1       -0.0809
      5 C          63.3286   89.3159   12.7339 C.ar    1  UNL1        0.0577
      6 C          63.9065   89.0515   14.0926 C.ar    1  UNL1        0.0462
      7 C          64.0736   87.6411   14.5750 C.ar    1  UNL1        0.1602
      8 F          64.6515   87.3767   15.9338 F       1  UNL1       -0.2027
      9 O          62.3392   84.9258   14.2332 O.2     1  UNL1       -0.1498
     10 S          63.8299   85.0846   14.1812 S.O2    1  UNL1        0.0772
     11 O          65.3205   85.2434   14.1293 O.2     1  UNL1       -0.1498
     12 N          63.9969   83.6742   14.6637 N.pl3   1  UNL1       -0.1936
     13 H          64.4888   83.4941   15.4973 H       1  UNL1        0.1758
     14 C          63.4146   82.5381   13.8761 C.ar    1  UNL1        0.1786
     15 N          62.5497   81.4401   14.4203 N.ar    1  UNL1       -0.2214
     16 C          62.1955   80.5240   13.2865 C.ar    1  UNL1        0.1079
     17 C          62.8415   81.0560   12.0416 C.ar    1  UNL1        0.0588
     18 S          63.5950   82.3008   12.4060 S.2     1  UNL1       -0.0497
     19 N          63.1615   90.7264   12.2514 N.pl3   1  UNL1       -0.3319
     20 H          62.3524   91.2349   12.4879 H       1  UNL1        0.1468
     21 C          64.2272   91.3620   11.4086 C.3     1  UNL1        0.0870
     22 C          65.0995   92.4365   11.9871 C.3     1  UNL1        0.0213
     23 C          66.0930   93.1461   11.1158 C.3     1  UNL1        0.0044
     24 C          67.1477   92.3641   10.3905 C.3     1  UNL1        0.0172
     25 C          68.1412   93.0737    9.5191 C.3     1  UNL1        0.0686
     26 N          68.0801   94.5654    9.3730 N.3     1  UNL1       -0.2975
     27 C          67.0254   95.3474   10.0983 C.3     1  UNL1        0.0686
     28 C          66.0318   94.6377   10.9697 C.3     1  UNL1        0.0172
     29 H          67.9589   94.7592    8.3789 H       1  UNL1        0.1232
@<TRIPOS>BOND
     1     9    10    2
     2    10    11    2
     3    10    12    1
     4    12    14    1
     5    14    15   ar
     6    15    16   ar
     7    16    17   ar
     8    17    18   ar
     9    10     1    1
    10     1     2   ar
    11     2     3   ar
    12     3     4    1
    13     3     5   ar
    14     5    19    1
    15    19    21    1
    16    21    22    1
    17    22    23    1
    18    23    24    1
    19    24    25    1
    20    25    26    1
    21    26    27    1
    22    27    28    1
    23     5     6   ar
    24     6     7   ar
    25     7     8    1
    26    18    14   ar
    27     7     1   ar
    28    28    23    1
    29    12    13    1
    30    19    20    1
    31    26    29    1
@<TRIPOS>MOLECULE
*****
 29 31 0 0 0
SMALL
GASTEIGER

@<TRIPOS>ATOM
      1 C          62.5269   88.9244   11.6493 C.ar    1  UNL1        0.1534
      2 C          63.1749   88.0698   12.6980 C.ar    1  UNL1        0.0351
      3 C          64.0729   88.6941   13.7245 C.ar    1  UNL1        0.0722
      4 CL         64.7210   87.8396   14.7732 Cl      1  UNL1       -0.0809
      5 C          64.3229   90.1730   13.7023 C.ar    1  UNL1        0.0577
      6 C          63.6748   91.0276   12.6537 C.ar    1  UNL1        0.0462
      7 C          62.7769   90.4032   11.6271 C.ar    1  UNL1        0.1602
      8 F          62.1288   91.2578   10.5784 F       1  UNL1       -0.2027
      9 O          62.3922   88.9933    9.5334 O.2     1  UNL1       -0.1498
     10 S          61.6289   88.3001   10.6227 S.O2    1  UNL1        0.0772
     11 O          60.8655   87.6068   11.7120 O.2     1  UNL1       -0.1498
     12 N          60.7309   87.6758    9.5961 N.pl3   1  UNL1       -0.1936
     13 H          59.7964   87.9742    9.5129 H       1  UNL1        0.1758
     14 C          61.2567   86.5969    8.6963 C.ar    1  UNL1        0.1786
     15 N          62.6102   85.9565    8.7853 N.ar    1  UNL1       -0.2214
     16 C          62.7113   84.9328    7.6936 C.ar    1  UNL1        0.1079
     17 C          61.4203   84.9405    6.9299 C.ar    1  UNL1        0.0588
     18 S          60.5212   85.9691    7.5496 S.2     1  UNL1       -0.0497
     19 N          65.2209   90.7973   14.7289 N.pl3   1  UNL1       -0.3319
     20 H          65.3414   90.3655   15.6054 H       1  UNL1        0.1468
     21 C          65.9354   92.0795   14.4201 C.3     1  UNL1        0.0870
     22 C          67.0715   92.0879   13.4406 C.3     1  UNL1        0.0213
     23 C          66.9179   92.7819   12.1198 C.3     1  UNL1        0.0044
     24 C          67.6545   92.2743   10.9157 C.3     1  UNL1        0.0172
     25 C          67.5009   92.9683    9.5948 C.3     1  UNL1        0.0686
     26 N          66.6107   94.1700    9.4780 N.3     1  UNL1       -0.2975
     27 C          65.8742   94.6776   10.6821 C.3     1  UNL1        0.0686
     28 C          66.0278   93.9836   12.0030 C.3     1  UNL1        0.0172
     29 H          65.9067   93.9476    8.7743 H       1  UNL1        0.1232
@<TRIPOS>BOND
     1     9    10    2
     2    10    11    2
     3    10    12    1
     4    12    14    1
     5    14    15   ar
     6    15    16   ar
     7    16    17   ar
     8    17    18   ar
     9    10     1    1
    10     1     2   ar
    11     2     3   ar
    12     3     4    1
    13     3     5   ar
    14     5    19    1
    15    19    21    1
    16    21    22    1
    17    22    23    1
    18    23    24    1
    19    24    25    1
    20    25    26    1
    21    26    27    1
    22    27    28    1
    23     5     6   ar
    24     6     7   ar
    25     7     8    1
    26    18    14   ar
    27     7     1   ar
    28    28    23    1
    29    12    13    1
    30    19    20    1
    31    26    29    1
