@<TRIPOS>MOLECULE
*****
 39 43 0 0 0
SMALL
GASTEIGER

@<TRIPOS>ATOM
      1 C          63.7989   88.9638   15.7494 C.ar    1  UNL1        0.0843
      2 N          63.2861   89.4581   17.0694 N.ar    1  UNL1       -0.2437
      3 C          62.7119   88.4900   18.0610 C.ar    1  UNL1        0.0988
      4 C          62.6505   87.0277   17.7324 C.ar    1  UNL1        0.0207
      5 C          63.1634   86.5335   16.4123 C.ar    1  UNL1        0.0043
      6 C          63.1020   85.0712   16.0838 C.ar    1  UNL1        0.0203
      7 C          63.6149   84.5769   14.7637 C.ar    1  UNL1        0.1252
      8 C          64.1891   85.5450   13.7721 C.ar    1  UNL1        0.0202
      9 C          64.2504   87.0073   14.1006 C.ar    1  UNL1        0.0029
     10 C          63.7376   87.5015   15.4208 C.ar    1  UNL1        0.0179
     11 C          63.5770   90.3292   13.5502 C.ar    1  UNL1        0.1402
     12 C          64.1511   91.2972   12.5586 C.ar    1  UNL1        0.0392
     13 C          65.5215   91.8679   12.7745 C.ar    1  UNL1        0.0305
     14 C          66.3176   91.4705   13.9821 C.ar    1  UNL1        0.1403
     15 F          67.6879   92.0411   14.1981 F       1  UNL1       -0.2042
     16 C          65.7434   90.5025   14.9737 C.ar    1  UNL1        0.0342
     17 C          64.3731   89.9319   14.7577 C.ar    1  UNL1        0.0538
     18 C          66.0956   92.8359   11.7830 C.ar    1  UNL1        0.0022
     19 C          65.7949   94.3004   11.9041 C.ar    1  UNL1        0.0001
     20 C          66.3691   95.2685   10.9125 C.ar    1  UNL1       -0.0001
     21 C          67.2439   94.7720    9.7997 C.ar    1  UNL1        0.0039
     22 C          67.5446   93.3074    9.6787 C.ar    1  UNL1        0.0714
     23 C          66.9704   92.3394   10.6702 C.ar    1  UNL1        0.0039
     24 C          68.4194   92.8108    8.5659 C.3     1  UNL1        0.4186
     25 F          69.2942   92.3143    7.4532 F       1  UNL1       -0.1659
     26 F          68.8005   91.6213    9.3964 F       1  UNL1       -0.1659
     27 F          68.0383   94.0004    7.7355 F       1  UNL1       -0.1659
     28 C          61.6011   89.7605   11.9618 C.3     1  UNL1        0.2525
     29 O          62.2066   89.7586   13.3342 O.3     1  UNL1       -0.4714
     30 S          63.5535   83.1146   14.4352 S.O2    1  UNL1        0.0748
     31 O          64.9899   83.1512   14.0044 O.2     1  UNL1       -0.1499
     32 O          62.1172   83.0781   14.8659 O.2     1  UNL1       -0.1499
     33 N          63.4922   81.6524   14.1066 N.pl3   1  UNL1       -0.1962
     34 H          63.5860   80.9827   14.8221 H       1  UNL1        0.1754
     35 C          63.2879   81.2104   12.6878 C.ar    1  UNL1        0.1893
     36 C          63.5723   82.0251   11.4609 C.ar    1  UNL1        0.0823
     37 C          63.2235   81.1943   10.2616 C.ar    1  UNL1        0.2152
     38 O          62.7236   79.8661   10.7474 O.2     1  UNL1       -0.3489
     39 N          62.7634   79.8760   12.2468 N.ar    1  UNL1       -0.0605
@<TRIPOS>BOND
     1    28    29    1
     2    29    11    1
     3    11    12   ar
     4    12    13   ar
     5    13    18    1
     6    18    19   ar
     7    19    20   ar
     8    20    21   ar
     9    21    22   ar
    10    22    24    1
    11    24    25    1
    12    24    26    1
    13    24    27    1
    14    22    23   ar
    15    13    14   ar
    16    14    15    1
    17    14    16   ar
    18    16    17   ar
    19    17     1    1
    20     1     2   ar
    21     2     3   ar
    22     3     4   ar
    23     4     5   ar
    24     5     6   ar
    25     6     7   ar
    26     7    30    1
    27    30    31    2
    28    30    32    2
    29    30    33    1
    30    33    35    1
    31    35    36   ar
    32    36    37   ar
    33    37    38   ar
    34    38    39   ar
    35     7     8   ar
    36     8     9   ar
    37     9    10   ar
    38    17    11   ar
    39    10     1   ar
    40    23    18   ar
    41    10     5   ar
    42    39    35   ar
    43    33    34    1
@<TRIPOS>MOLECULE
*****
 39 43 0 0 0
SMALL
GASTEIGER

@<TRIPOS>ATOM
      1 C          62.6318   88.2855   11.2053 C.ar    1  UNL1        0.0843
      2 N          62.0011   88.8248    9.9558 N.ar    1  UNL1       -0.2437
      3 C          62.0271   90.2987    9.6786 C.ar    1  UNL1        0.0988
      4 C          62.6840   91.2332   10.6508 C.ar    1  UNL1        0.0207
      5 C          63.3147   90.6939   11.9003 C.ar    1  UNL1        0.0043
      6 C          63.9715   91.6285   12.8725 C.ar    1  UNL1        0.0203
      7 C          64.6022   91.0891   14.1220 C.ar    1  UNL1        0.1252
      8 C          64.5762   89.6152   14.3993 C.ar    1  UNL1        0.0202
      9 C          63.9194   88.6806   13.4271 C.ar    1  UNL1        0.0029
     10 C          63.2886   89.2200   12.1775 C.ar    1  UNL1        0.0179
     11 C          62.2702   85.8474   10.3836 C.ar    1  UNL1        0.1402
     12 C          62.2442   84.3735   10.6608 C.ar    1  UNL1        0.0392
     13 C          62.5536   83.8636   12.0372 C.ar    1  UNL1        0.0305
     14 C          62.8891   84.8277   13.1363 C.ar    1  UNL1        0.1403
     15 F          63.1985   84.3180   14.5126 F       1  UNL1       -0.2042
     16 C          62.9152   86.3017   12.8590 C.ar    1  UNL1        0.0342
     17 C          62.6057   86.8115   11.4827 C.ar    1  UNL1        0.0538
     18 C          62.5276   82.3898   12.3145 C.ar    1  UNL1        0.0022
     19 C          62.2272   81.8920   13.6972 C.ar    1  UNL1        0.0001
     20 C          62.2011   80.4180   13.9745 C.ar    1  UNL1       -0.0001
     21 C          62.4754   79.4419   12.8691 C.ar    1  UNL1        0.0039
     22 C          62.7758   79.9398   11.4863 C.ar    1  UNL1        0.0714
     23 C          62.8019   81.4137   11.2091 C.ar    1  UNL1        0.0039
     24 C          63.0501   78.9637   10.3809 C.3     1  UNL1        0.4186
     25 F          63.3244   77.9876    9.2754 F       1  UNL1       -0.1659
     26 F          63.3016   80.1026    9.4377 F       1  UNL1       -0.1659
     27 F          62.7986   77.8248   11.3241 F       1  UNL1       -0.1659
     28 C          60.6543   86.0126    8.3559 C.3     1  UNL1        0.2525
     29 O          61.9608   86.3572    9.0072 O.3     1  UNL1       -0.4714
     30 S          65.2591   92.0237   15.0942 S.O2    1  UNL1        0.0748
     31 O          66.1349   92.5504   13.9962 O.2     1  UNL1       -0.1499
     32 O          64.3832   91.4970   16.1921 O.2     1  UNL1       -0.1499
     33 N          65.9159   92.9583   16.0664 N.pl3   1  UNL1       -0.1962
     34 H          65.3670   93.4782   16.6969 H       1  UNL1        0.1754
     35 C          67.4091   93.1005   16.0779 C.ar    1  UNL1        0.1893
     36 C          68.4000   91.9848   16.2306 C.ar    1  UNL1        0.0823
     37 C          69.7768   92.5782   16.1859 C.ar    1  UNL1        0.2152
     38 O          69.6370   94.0608   16.0056 O.2     1  UNL1       -0.3489
     39 N          68.1736   94.3836   15.9389 N.ar    1  UNL1       -0.0605
@<TRIPOS>BOND
     1    28    29    1
     2    29    11    1
     3    11    12   ar
     4    12    13   ar
     5    13    18    1
     6    18    19   ar
     7    19    20   ar
     8    20    21   ar
     9    21    22   ar
    10    22    24    1
    11    24    25    1
    12    24    26    1
    13    24    27    1
    14    22    23   ar
    15    13    14   ar
    16    14    15    1
    17    14    16   ar
    18    16    17   ar
    19    17     1    1
    20     1     2   ar
    21     2     3   ar
    22     3     4   ar
    23     4     5   ar
    24     5     6   ar
    25     6     7   ar
    26     7    30    1
    27    30    31    2
    28    30    32    2
    29    30    33    1
    30    33    35    1
    31    35    36   ar
    32    36    37   ar
    33    37    38   ar
    34    38    39   ar
    35     7     8   ar
    36     8     9   ar
    37     9    10   ar
    38    17    11   ar
    39    10     1   ar
    40    23    18   ar
    41    10     5   ar
    42    39    35   ar
    43    33    34    1
@<TRIPOS>MOLECULE
*****
 39 43 0 0 0
SMALL
GASTEIGER

@<TRIPOS>ATOM
      1 C          62.7583   88.1678   11.3936 C.ar    1  UNL1        0.0843
      2 N          62.1478   88.5812   10.0874 N.ar    1  UNL1       -0.2437
      3 C          62.2025   90.0164    9.6549 C.ar    1  UNL1        0.0988
      4 C          62.8678   91.0382   10.5285 C.ar    1  UNL1        0.0207
      5 C          63.4784   90.6248   11.8348 C.ar    1  UNL1        0.0043
      6 C          64.1437   91.6466   12.7084 C.ar    1  UNL1        0.0203
      7 C          64.7543   91.2331   14.0147 C.ar    1  UNL1        0.1252
      8 C          64.6995   89.7978   14.4472 C.ar    1  UNL1        0.0202
      9 C          64.0342   88.7761   13.5736 C.ar    1  UNL1        0.0029
     10 C          63.4236   89.1896   12.2673 C.ar    1  UNL1        0.0179
     11 C          62.3012   85.6691   10.8477 C.ar    1  UNL1        0.1402
     12 C          62.2465   84.2339   11.2802 C.ar    1  UNL1        0.0392
     13 C          62.5941   83.8620   12.6913 C.ar    1  UNL1        0.0305
     14 C          62.9965   84.9254   13.6697 C.ar    1  UNL1        0.1403
     15 F          63.3441   84.5536   15.0807 F       1  UNL1       -0.2042
     16 C          63.0512   86.3607   13.2371 C.ar    1  UNL1        0.0342
     17 C          62.7036   86.7325   11.8262 C.ar    1  UNL1        0.0538
     18 C          62.5394   82.4268   13.1238 C.ar    1  UNL1        0.0022
     19 C          63.8051   81.6308   13.2434 C.ar    1  UNL1        0.0001
     20 C          63.7504   80.1955   13.6760 C.ar    1  UNL1       -0.0001
     21 C          62.4300   79.5563   13.9888 C.ar    1  UNL1        0.0039
     22 C          61.1642   80.3524   13.8692 C.ar    1  UNL1        0.0714
     23 C          61.2190   81.7876   13.4366 C.ar    1  UNL1        0.0039
     24 C          59.8438   79.7132   14.1820 C.3     1  UNL1        0.4186
     25 F          58.5234   79.0739   14.4949 F       1  UNL1       -0.1659
     26 F          60.4995   78.3641   14.1928 F       1  UNL1       -0.1659
     27 F          59.1882   81.0622   14.1712 F       1  UNL1       -0.1659
     28 C          62.7225   85.4477    8.2936 C.3     1  UNL1        0.2525
     29 O          61.9536   86.0411    9.4367 O.3     1  UNL1       -0.4714
     30 S          65.4196   92.2549   14.8884 S.O2    1  UNL1        0.0748
     31 O          64.5877   91.8020   16.0515 O.2     1  UNL1       -0.1499
     32 O          66.2514   92.7078   13.7252 O.2     1  UNL1       -0.1499
     33 N          66.0849   93.2767   15.7620 N.pl3   1  UNL1       -0.1962
     34 H          65.5436   93.9581   16.2224 H       1  UNL1        0.1754
     35 C          67.5749   93.2602   15.9343 C.ar    1  UNL1        0.1893
     36 C          68.4252   92.0419   16.1410 C.ar    1  UNL1        0.0823
     37 C          69.8520   92.4879   16.2645 C.ar    1  UNL1        0.2152
     38 O          69.8836   93.9820   16.1341 O.2     1  UNL1       -0.3489
     39 N          68.4763   94.4592   15.9301 N.ar    1  UNL1       -0.0605
@<TRIPOS>BOND
     1    28    29    1
     2    29    11    1
     3    11    12   ar
     4    12    13   ar
     5    13    18    1
     6    18    19   ar
     7    19    20   ar
     8    20    21   ar
     9    21    22   ar
    10    22    24    1
    11    24    25    1
    12    24    26    1
    13    24    27    1
    14    22    23   ar
    15    13    14   ar
    16    14    15    1
    17    14    16   ar
    18    16    17   ar
    19    17     1    1
    20     1     2   ar
    21     2     3   ar
    22     3     4   ar
    23     4     5   ar
    24     5     6   ar
    25     6     7   ar
    26     7    30    1
    27    30    31    2
    28    30    32    2
    29    30    33    1
    30    33    35    1
    31    35    36   ar
    32    36    37   ar
    33    37    38   ar
    34    38    39   ar
    35     7     8   ar
    36     8     9   ar
    37     9    10   ar
    38    17    11   ar
    39    10     1   ar
    40    23    18   ar
    41    10     5   ar
    42    39    35   ar
    43    33    34    1
@<TRIPOS>MOLECULE
*****
 39 43 0 0 0
SMALL
GASTEIGER

@<TRIPOS>ATOM
      1 C          58.6843   89.4981    6.4657 C.ar    1  UNL1        0.0843
      2 N          57.1961   89.5086    6.6523 N.ar    1  UNL1       -0.2437
      3 C          56.3493   90.4703    5.8725 C.ar    1  UNL1        0.0988
      4 C          56.9908   91.4214    4.9062 C.ar    1  UNL1        0.0207
      5 C          58.4790   91.4108    4.7195 C.ar    1  UNL1        0.0043
      6 C          59.1205   92.3620    3.7532 C.ar    1  UNL1        0.0203
      7 C          60.6088   92.3514    3.5665 C.ar    1  UNL1        0.1252
      8 C          61.4557   91.3897    4.3463 C.ar    1  UNL1        0.0202
      9 C          60.8142   90.4386    5.3127 C.ar    1  UNL1        0.0029
     10 C          59.3258   90.4492    5.4993 C.ar    1  UNL1        0.0179
     11 C          60.1216   88.9524    8.5601 C.ar    1  UNL1        0.1402
     12 C          60.9685   87.9908    9.3399 C.ar    1  UNL1        0.0392
     13 C          61.2249   86.6130    8.8050 C.ar    1  UNL1        0.0305
     14 C          60.6345   86.1969    7.4903 C.ar    1  UNL1        0.1403
     15 F          60.8910   84.8192    6.9554 F       1  UNL1       -0.2042
     16 C          59.7877   87.1586    6.7106 C.ar    1  UNL1        0.0342
     17 C          59.5312   88.5363    7.2454 C.ar    1  UNL1        0.0538
     18 C          62.0718   85.6514    9.5848 C.ar    1  UNL1        0.0022
     19 C          63.0094   84.7258    8.8677 C.ar    1  UNL1        0.0001
     20 C          63.8563   83.7641    9.6475 C.ar    1  UNL1       -0.0001
     21 C          63.7655   83.7280   11.1443 C.ar    1  UNL1        0.0039
     22 C          62.8278   84.6536   11.8613 C.ar    1  UNL1        0.0714
     23 C          61.9810   85.6153   11.0816 C.ar    1  UNL1        0.0039
     24 C          62.7370   84.6175   13.3581 C.3     1  UNL1        0.4186
     25 F          62.6463   84.5814   14.8550 F       1  UNL1       -0.1659
     26 F          62.0338   83.2947   13.2836 F       1  UNL1       -0.1659
     27 F          63.4403   85.9404   13.4327 F       1  UNL1       -0.1659
     28 C          59.9011   90.5793   10.5737 C.3     1  UNL1        0.2525
     29 O          59.8651   90.3302    9.0950 O.3     1  UNL1       -0.4714
     30 S          61.2503   93.3025    2.6002 S.O2    1  UNL1        0.0748
     31 O          60.0248   94.1667    2.6372 O.2     1  UNL1       -0.1499
     32 O          62.4758   92.4383    2.5631 O.2     1  UNL1       -0.1499
     33 N          61.8918   94.2536    1.6338 N.pl3   1  UNL1       -0.1962
     34 H          62.2638   95.1063    1.9559 H       1  UNL1        0.1754
     35 C          61.9663   93.9056    0.1766 C.ar    1  UNL1        0.1893
     36 C          63.1933   93.9706   -0.6838 C.ar    1  UNL1        0.0823
     37 C          62.8122   93.5366   -2.0681 C.ar    1  UNL1        0.2152
     38 O          61.3497   93.2033   -2.0634 O.2     1  UNL1       -0.3489
     39 N          60.8269   93.4314   -0.6760 N.ar    1  UNL1       -0.0605
@<TRIPOS>BOND
     1    28    29    1
     2    29    11    1
     3    11    12   ar
     4    12    13   ar
     5    13    18    1
     6    18    19   ar
     7    19    20   ar
     8    20    21   ar
     9    21    22   ar
    10    22    24    1
    11    24    25    1
    12    24    26    1
    13    24    27    1
    14    22    23   ar
    15    13    14   ar
    16    14    15    1
    17    14    16   ar
    18    16    17   ar
    19    17     1    1
    20     1     2   ar
    21     2     3   ar
    22     3     4   ar
    23     4     5   ar
    24     5     6   ar
    25     6     7   ar
    26     7    30    1
    27    30    31    2
    28    30    32    2
    29    30    33    1
    30    33    35    1
    31    35    36   ar
    32    36    37   ar
    33    37    38   ar
    34    38    39   ar
    35     7     8   ar
    36     8     9   ar
    37     9    10   ar
    38    17    11   ar
    39    10     1   ar
    40    23    18   ar
    41    10     5   ar
    42    39    35   ar
    43    33    34    1
