@<TRIPOS>MOLECULE
*****
 33 36 0 0 0
SMALL
GASTEIGER

@<TRIPOS>ATOM
      1 N          61.3086   88.1337   10.5283 N.ar    1  UNL1       -0.2357
      2 N          61.0099   89.5955   10.6830 N.ar    1  UNL1       -0.1663
      3 C          60.1486   90.0172    9.5297 C.ar    1  UNL1        0.1279
      4 C          59.9150   88.8160    8.6620 C.ar    1  UNL1        0.1099
      5 C          59.1421   88.6319    7.3897 C.ar    1  UNL1        0.2355
      6 N          59.0861   87.2837    6.7346 N.ar    1  UNL1       -0.1889
      7 C          59.8030   86.1197    7.3518 C.ar    1  UNL1        0.2029
      8 N          60.5759   86.3038    8.6241 N.ar    1  UNL1       -0.2049
      9 C          60.6319   87.6520    9.2792 C.ar    1  UNL1        0.1671
     10 C          64.6275   84.7987   14.2516 C.2     1  UNL1        0.4046
     11 O          65.5056   85.4616   15.2712 O.2     1  UNL1       -0.2262
     12 N          63.7977   85.6325   13.3208 N.am    1  UNL1       -0.2459
     13 C          62.9196   84.9696   12.3012 C.3     1  UNL1        0.0987
     14 C          62.0899   85.8034   11.3704 C.3     1  UNL1        0.0461
     15 C          62.1383   87.2999   11.4591 C.3     1  UNL1        0.1102
     16 C          63.0164   87.9628   12.4787 C.3     1  UNL1        0.0461
     17 C          63.8461   87.1290   13.4095 C.3     1  UNL1        0.0987
     18 O          64.5790   83.3022   14.1629 O.3     1  UNL1       -0.4418
     19 C          63.6393   81.7428   13.0740 C.3     1  UNL1        0.0437
     20 C          63.2634   82.5876   14.2552 C.3     1  UNL1        0.1378
     21 C          62.8875   83.4323   15.4363 C.3     1  UNL1        0.0437
     22 C          61.9477   81.8730   14.3476 C.3     1  UNL1        0.0437
     23 O          58.4252   89.7961    6.7726 O.3     1  UNL1       -0.4359
     24 C          59.0951   90.6087    5.7045 C.ar    1  UNL1        0.1473
     25 C          60.5650   90.4494    5.4519 C.ar    1  UNL1        0.0389
     26 C          61.2349   91.2621    4.3839 C.ar    1  UNL1        0.0215
     27 C          60.4349   92.2341    3.5683 C.ar    1  UNL1        0.1059
     28 C          58.9648   92.3934    3.8209 C.ar    1  UNL1        0.0215
     29 C          58.2949   91.5808    4.8889 C.ar    1  UNL1        0.0389
     30 S          61.1048   93.0468    2.5002 S.O2    1  UNL1        0.0105
     31 C          61.7747   93.8594    1.4322 C.3     1  UNL1        0.1816
     32 O          62.3955   92.3294    2.7640 O.2     1  UNL1       -0.1686
     33 O          59.8141   93.7641    2.2365 O.2     1  UNL1       -0.1686
@<TRIPOS>BOND
     1    19    20    1
     2    20    21    1
     3    20    22    1
     4    20    18    1
     5    18    10    1
     6    10    11    2
     7    10    12   am
     8    12    13    1
     9    13    14    1
    10    14    15    1
    11    15     1    1
    12     1     2   ar
    13     2     3   ar
    14     3     4   ar
    15     4     5   ar
    16     5    23    1
    17    23    24    1
    18    24    25   ar
    19    25    26   ar
    20    26    27   ar
    21    27    30    1
    22    30    31    1
    23    30    32    2
    24    30    33    2
    25    27    28   ar
    26    28    29   ar
    27     5     6   ar
    28     6     7   ar
    29     7     8   ar
    30     8     9   ar
    31    15    16    1
    32    16    17    1
    33    17    12    1
    34     9     1   ar
    35     9     4   ar
    36    29    24   ar
@<TRIPOS>MOLECULE
*****
 33 36 0 0 0
SMALL
GASTEIGER

@<TRIPOS>ATOM
      1 N          61.1142   86.1331    8.9934 N.ar    1  UNL1       -0.2357
      2 N          60.5289   85.6396    7.7034 N.ar    1  UNL1       -0.1663
      3 C          59.8088   86.7837    7.0535 C.ar    1  UNL1        0.1279
      4 C          59.9489   87.9843    7.9418 C.ar    1  UNL1        0.1099
      5 C          59.4461   89.3917    7.8137 C.ar    1  UNL1        0.2355
      6 N          59.7501   90.3970    8.8846 N.ar    1  UNL1       -0.1889
      7 C          60.5569   89.9950   10.0835 C.ar    1  UNL1        0.2029
      8 N          61.0597   88.5875   10.2115 N.ar    1  UNL1       -0.2049
      9 C          60.7557   87.5822    9.1406 C.ar    1  UNL1        0.1671
     10 C          64.3255   82.8818   12.8814 C.2     1  UNL1        0.4046
     11 O          65.3990   81.9609   12.3820 O.2     1  UNL1       -0.2262
     12 N          63.5227   83.6946   11.9094 N.am    1  UNL1       -0.2459
     13 C          62.4491   84.6155   12.4088 C.3     1  UNL1        0.0987
     14 C          61.6463   85.4284   11.4367 C.3     1  UNL1        0.0461
     15 C          61.9170   85.3203    9.9654 C.3     1  UNL1        0.1102
     16 C          62.9906   84.3994    9.4660 C.3     1  UNL1        0.0461
     17 C          63.7934   83.5866   10.4380 C.3     1  UNL1        0.0987
     18 O          64.0547   82.9899   14.3528 O.3     1  UNL1       -0.4418
     19 C          62.7319   84.0554   15.6237 C.3     1  UNL1        0.0437
     20 C          64.0785   84.3315   15.0232 C.3     1  UNL1        0.1378
     21 C          65.4250   84.6077   14.4227 C.3     1  UNL1        0.0437
     22 C          64.1024   85.6732   15.6935 C.3     1  UNL1        0.0437
     23 O          58.6393   89.7937    6.6148 O.3     1  UNL1       -0.4359
     24 C          59.2480   90.6706    5.5609 C.ar    1  UNL1        0.1473
     25 C          60.7195   90.5948    5.2803 C.ar    1  UNL1        0.0389
     26 C          61.3281   91.4717    4.2264 C.ar    1  UNL1        0.0215
     27 C          60.4653   92.4243    3.4531 C.ar    1  UNL1        0.1059
     28 C          58.9937   92.5001    3.7338 C.ar    1  UNL1        0.0215
     29 C          58.3850   91.6232    4.7876 C.ar    1  UNL1        0.0389
     30 S          61.0739   93.3011    2.3993 S.O2    1  UNL1        0.0105
     31 C          61.6826   94.1780    1.3454 C.3     1  UNL1        0.1816
     32 O          59.7569   93.9953    2.2162 O.2     1  UNL1       -0.1686
     33 O          62.3910   92.6069    2.5823 O.2     1  UNL1       -0.1686
@<TRIPOS>BOND
     1    19    20    1
     2    20    21    1
     3    20    22    1
     4    20    18    1
     5    18    10    1
     6    10    11    2
     7    10    12   am
     8    12    13    1
     9    13    14    1
    10    14    15    1
    11    15     1    1
    12     1     2   ar
    13     2     3   ar
    14     3     4   ar
    15     4     5   ar
    16     5    23    1
    17    23    24    1
    18    24    25   ar
    19    25    26   ar
    20    26    27   ar
    21    27    30    1
    22    30    31    1
    23    30    32    2
    24    30    33    2
    25    27    28   ar
    26    28    29   ar
    27     5     6   ar
    28     6     7   ar
    29     7     8   ar
    30     8     9   ar
    31    15    16    1
    32    16    17    1
    33    17    12    1
    34     9     1   ar
    35     9     4   ar
    36    29    24   ar
@<TRIPOS>MOLECULE
*****
 33 36 0 0 0
SMALL
GASTEIGER

@<TRIPOS>ATOM
      1 N          63.7868   86.0984   13.9059 N.ar    1  UNL1       -0.2357
      2 N          64.5852   86.6476   15.0508 N.ar    1  UNL1       -0.1663
      3 C          64.6829   88.1342   14.8769 C.ar    1  UNL1        0.1279
      4 C          63.9448   88.5039   13.6244 C.ar    1  UNL1        0.1099
      5 C          63.7055   89.8236   12.9529 C.ar    1  UNL1        0.2355
      6 N          62.9123   89.8852   11.6813 N.ar    1  UNL1       -0.1889
      7 C          62.3585   88.6270   11.0812 C.ar    1  UNL1        0.2029
      8 N          62.5978   87.3073   11.7527 N.ar    1  UNL1       -0.2049
      9 C          63.3910   87.2457   13.0243 C.ar    1  UNL1        0.1671
     10 C          62.4165   80.3261   13.0095 C.2     1  UNL1        0.4046
     11 O          61.2453   79.7143   13.7194 O.2     1  UNL1       -0.2262
     12 N          62.7591   81.7692   13.2336 N.am    1  UNL1       -0.2459
     13 C          63.9303   82.3810   12.5237 C.3     1  UNL1        0.0987
     14 C          64.2728   83.8241   12.7478 C.3     1  UNL1        0.0461
     15 C          63.4442   84.6554   13.6818 C.3     1  UNL1        0.1102
     16 C          62.2730   84.0435   14.3917 C.3     1  UNL1        0.0461
     17 C          61.9305   82.6005   14.1676 C.3     1  UNL1        0.0987
     18 O          63.2452   79.4949   12.0755 O.3     1  UNL1       -0.4418
     19 C          63.1526   80.8219   10.4230 C.3     1  UNL1        0.0437
     20 C          62.8505   79.3678   10.6339 C.3     1  UNL1        0.1378
     21 C          62.5483   77.9138   10.8448 C.3     1  UNL1        0.0437
     22 C          62.4557   79.2407    9.1923 C.3     1  UNL1        0.0437
     23 O          64.2594   91.0819   13.5531 O.3     1  UNL1       -0.4359
     24 C          64.9118   92.1078   12.6746 C.ar    1  UNL1        0.1473
     25 C          64.6533   92.1036   11.1971 C.ar    1  UNL1        0.0389
     26 C          65.3057   93.1296   10.3186 C.ar    1  UNL1        0.0215
     27 C          66.2167   94.1597   10.9176 C.ar    1  UNL1        0.1059
     28 C          66.4753   94.1640   12.3952 C.ar    1  UNL1        0.0215
     29 C          65.8228   93.1380   13.2737 C.ar    1  UNL1        0.0389
     30 S          66.8691   95.1857   10.0391 S.O2    1  UNL1        0.0105
     31 C          67.5216   96.2116    9.1606 C.3     1  UNL1        0.1816
     32 O          67.9804   94.2234    9.7407 O.2     1  UNL1       -0.1686
     33 O          65.7579   96.1480   10.3376 O.2     1  UNL1       -0.1686
@<TRIPOS>BOND
     1    19    20    1
     2    20    21    1
     3    20    22    1
     4    20    18    1
     5    18    10    1
     6    10    11    2
     7    10    12   am
     8    12    13    1
     9    13    14    1
    10    14    15    1
    11    15     1    1
    12     1     2   ar
    13     2     3   ar
    14     3     4   ar
    15     4     5   ar
    16     5    23    1
    17    23    24    1
    18    24    25   ar
    19    25    26   ar
    20    26    27   ar
    21    27    30    1
    22    30    31    1
    23    30    32    2
    24    30    33    2
    25    27    28   ar
    26    28    29   ar
    27     5     6   ar
    28     6     7   ar
    29     7     8   ar
    30     8     9   ar
    31    15    16    1
    32    16    17    1
    33    17    12    1
    34     9     1   ar
    35     9     4   ar
    36    29    24   ar
@<TRIPOS>MOLECULE
*****
 33 36 0 0 0
SMALL
GASTEIGER

@<TRIPOS>ATOM
      1 N          64.3637   90.0298   13.5253 N.ar    1  UNL1       -0.2357
      2 N          63.4764   90.9917   12.7921 N.ar    1  UNL1       -0.1663
      3 C          64.1087   92.3502   12.8610 C.ar    1  UNL1        0.1279
      4 C          65.3867   92.2278   13.6368 C.ar    1  UNL1        0.1099
      5 C          66.4273   93.2371   14.0223 C.ar    1  UNL1        0.2355
      6 N          67.6255   92.8122   14.8184 N.ar    1  UNL1       -0.1889
      7 C          67.7831   91.3781   15.2289 C.ar    1  UNL1        0.2029
      8 N          66.7425   90.3689   14.8433 N.ar    1  UNL1       -0.2049
      9 C          65.5443   90.7938   14.0473 C.ar    1  UNL1        0.1671
     10 C          63.3658   84.1571   14.2437 C.2     1  UNL1        0.4046
     11 O          63.8707   83.4550   15.4693 O.2     1  UNL1       -0.2262
     12 N          63.6153   85.6253   14.0641 N.am    1  UNL1       -0.2459
     13 C          63.1103   86.3274   12.8386 C.3     1  UNL1        0.0987
     14 C          63.3598   87.7956   12.6590 C.3     1  UNL1        0.0461
     15 C          64.1142   88.5617   13.7049 C.3     1  UNL1        0.1102
     16 C          64.6192   87.8595   14.9304 C.3     1  UNL1        0.0461
     17 C          64.3697   86.3913   15.1100 C.3     1  UNL1        0.0987
     18 O          62.6113   83.3911   13.1978 O.3     1  UNL1       -0.4418
     19 C          61.6642   81.6579   13.9718 C.3     1  UNL1        0.0437
     20 C          62.8219   81.9131   13.0527 C.3     1  UNL1        0.1378
     21 C          63.9797   82.1683   12.1338 C.3     1  UNL1        0.0437
     22 C          63.0326   80.4350   12.9077 C.3     1  UNL1        0.0437
     23 O          66.2696   94.6712   13.6118 O.3     1  UNL1       -0.4359
     24 C          66.2339   95.0353   12.1571 C.ar    1  UNL1        0.1473
     25 C          65.8284   96.4178   11.7397 C.ar    1  UNL1        0.0389
     26 C          65.7927   96.7819   10.2850 C.ar    1  UNL1        0.0215
     27 C          66.1624   95.7634    9.2477 C.ar    1  UNL1        0.1059
     28 C          66.5679   94.3809    9.6650 C.ar    1  UNL1        0.0215
     29 C          66.6036   94.0168   11.1197 C.ar    1  UNL1        0.0389
     30 S          66.1266   96.1275    7.7930 S.O2    1  UNL1        0.0105
     31 C          66.0909   96.4916    6.3383 C.3     1  UNL1        0.1816
     32 O          67.4209   95.4001    7.5791 O.2     1  UNL1       -0.1686
     33 O          64.8324   96.8550    8.0069 O.2     1  UNL1       -0.1686
@<TRIPOS>BOND
     1    19    20    1
     2    20    21    1
     3    20    22    1
     4    20    18    1
     5    18    10    1
     6    10    11    2
     7    10    12   am
     8    12    13    1
     9    13    14    1
    10    14    15    1
    11    15     1    1
    12     1     2   ar
    13     2     3   ar
    14     3     4   ar
    15     4     5   ar
    16     5    23    1
    17    23    24    1
    18    24    25   ar
    19    25    26   ar
    20    26    27   ar
    21    27    30    1
    22    30    31    1
    23    30    32    2
    24    30    33    2
    25    27    28   ar
    26    28    29   ar
    27     5     6   ar
    28     6     7   ar
    29     7     8   ar
    30     8     9   ar
    31    15    16    1
    32    16    17    1
    33    17    12    1
    34     9     1   ar
    35     9     4   ar
    36    29    24   ar
@<TRIPOS>MOLECULE
*****
 33 36 0 0 0
SMALL
GASTEIGER

@<TRIPOS>ATOM
      1 N          59.3632   90.2772    6.1825 N.ar    1  UNL1       -0.2357
      2 N          57.9250   90.6378    5.9554 N.ar    1  UNL1       -0.1663
      3 C          57.8554   91.5299    4.7515 C.ar    1  UNL1        0.1279
      4 C          59.2506   91.7207    4.2347 C.ar    1  UNL1        0.1099
      5 C          59.7929   92.4994    3.0730 C.ar    1  UNL1        0.2355
      6 N          61.2670   92.5039    2.7957 N.ar    1  UNL1       -0.1889
      7 C          62.1988   91.7297    3.6801 C.ar    1  UNL1        0.2029
      8 N          61.6566   90.9510    4.8418 N.ar    1  UNL1       -0.2049
      9 C          60.1825   90.9465    5.1191 C.ar    1  UNL1        0.1671
     10 C          61.4694   86.7731   10.5740 C.2     1  UNL1        0.4046
     11 O          62.0099   87.3885   11.8307 O.2     1  UNL1       -0.2262
     12 N          60.9429   87.6491    9.4762 N.am    1  UNL1       -0.2459
     13 C          60.4024   87.0337    8.2195 C.3     1  UNL1        0.0987
     14 C          59.8758   87.9097    7.1217 C.3     1  UNL1        0.0461
     15 C          59.8897   89.4012    7.2804 C.3     1  UNL1        0.1102
     16 C          60.4302   90.0167    8.5370 C.3     1  UNL1        0.0461
     17 C          60.9568   89.1406    9.6349 C.3     1  UNL1        0.0987
     18 O          61.4554   85.2816   10.4152 O.3     1  UNL1       -0.4418
     19 C          63.0202   84.9361    9.0251 C.3     1  UNL1        0.0437
     20 C          62.7433   84.5129   10.4374 C.3     1  UNL1        0.1378
     21 C          62.4665   84.0898   11.8496 C.3     1  UNL1        0.0437
     22 C          64.0313   83.7442   10.4596 C.3     1  UNL1        0.0437
     23 O          58.8609   93.2737    2.1886 O.3     1  UNL1       -0.4359
     24 C          59.2535   93.5839    0.7745 C.ar    1  UNL1        0.1473
     25 C          59.6317   94.9838    0.3910 C.ar    1  UNL1        0.0389
     26 C          60.0242   95.2940   -1.0231 C.ar    1  UNL1        0.0215
     27 C          60.0386   94.2042   -2.0537 C.ar    1  UNL1        0.1059
     28 C          59.6604   92.8042   -1.6703 C.ar    1  UNL1        0.0215
     29 C          59.2678   92.4940   -0.2562 C.ar    1  UNL1        0.0389
     30 S          60.4311   94.5144   -3.4678 S.O2    1  UNL1        0.0105
     31 C          60.8237   94.8246   -4.8819 C.3     1  UNL1        0.1816
     32 O          61.6261   93.6179   -3.3328 O.2     1  UNL1       -0.1686
     33 O          59.2361   95.4109   -3.6029 O.2     1  UNL1       -0.1686
@<TRIPOS>BOND
     1    19    20    1
     2    20    21    1
     3    20    22    1
     4    20    18    1
     5    18    10    1
     6    10    11    2
     7    10    12   am
     8    12    13    1
     9    13    14    1
    10    14    15    1
    11    15     1    1
    12     1     2   ar
    13     2     3   ar
    14     3     4   ar
    15     4     5   ar
    16     5    23    1
    17    23    24    1
    18    24    25   ar
    19    25    26   ar
    20    26    27   ar
    21    27    30    1
    22    30    31    1
    23    30    32    2
    24    30    33    2
    25    27    28   ar
    26    28    29   ar
    27     5     6   ar
    28     6     7   ar
    29     7     8   ar
    30     8     9   ar
    31    15    16    1
    32    16    17    1
    33    17    12    1
    34     9     1   ar
    35     9     4   ar
    36    29    24   ar
@<TRIPOS>MOLECULE
*****
 33 36 0 0 0
SMALL
GASTEIGER

@<TRIPOS>ATOM
      1 N          63.6124   86.7984   13.3265 N.ar    1  UNL1       -0.2357
      2 N          64.1845   87.6371   14.4308 N.ar    1  UNL1       -0.1663
      3 C          64.0700   89.0769   14.0262 C.ar    1  UNL1        0.1279
      4 C          63.4271   89.1281   12.6719 C.ar    1  UNL1        0.1099
      5 C          63.0628   90.2751   11.7765 C.ar    1  UNL1        0.2355
      6 N          62.4156   90.0140   10.4488 N.ar    1  UNL1       -0.1889
      7 C          62.1327   88.6058   10.0164 C.ar    1  UNL1        0.2029
      8 N          62.4971   87.4588   10.9118 N.ar    1  UNL1       -0.2049
      9 C          63.1443   87.7199   12.2395 C.ar    1  UNL1        0.1671
     10 C          63.2583   80.8091   13.2680 C.2     1  UNL1        0.4046
     11 O          64.1124   79.9982   14.1969 O.2     1  UNL1       -0.2262
     12 N          63.3468   82.3064   13.2827 N.am    1  UNL1       -0.2459
     13 C          62.4927   83.1174   12.3538 C.3     1  UNL1        0.0987
     14 C          62.5812   84.6147   12.3684 C.3     1  UNL1        0.0461
     15 C          63.5238   85.3011   13.3119 C.3     1  UNL1        0.1102
     16 C          64.3779   84.4902   14.2408 C.3     1  UNL1        0.0461
     17 C          64.2894   82.9929   14.2262 C.3     1  UNL1        0.0987
     18 O          62.3156   80.1228   12.3245 O.3     1  UNL1       -0.4418
     19 C          63.1183   81.0784   10.6090 C.3     1  UNL1        0.0437
     20 C          62.8017   79.6606   10.9828 C.3     1  UNL1        0.1378
     21 C          62.4851   78.2428   11.3565 C.3     1  UNL1        0.0437
     22 C          63.2878   79.1984    9.6411 C.3     1  UNL1        0.0437
     23 O          63.3456   91.6834   12.2090 O.3     1  UNL1       -0.4359
     24 C          64.5983   91.9961   12.9726 C.ar    1  UNL1        0.1473
     25 C          64.6009   91.9246   14.4708 C.ar    1  UNL1        0.0389
     26 C          65.8535   92.2373   15.2344 C.ar    1  UNL1        0.0215
     27 C          67.1035   92.6217   14.4998 C.ar    1  UNL1        0.1059
     28 C          67.1009   92.6932   13.0015 C.ar    1  UNL1        0.0215
     29 C          65.8483   92.3805   12.2378 C.ar    1  UNL1        0.0389
     30 S          68.3562   92.9344   15.2634 S.O2    1  UNL1        0.0105
     31 C          69.6088   93.2472   16.0270 C.3     1  UNL1        0.1816
     32 O          69.1813   92.4722   14.0992 O.2     1  UNL1       -0.1686
     33 O          67.5310   93.3966   16.4277 O.2     1  UNL1       -0.1686
@<TRIPOS>BOND
     1    19    20    1
     2    20    21    1
     3    20    22    1
     4    20    18    1
     5    18    10    1
     6    10    11    2
     7    10    12   am
     8    12    13    1
     9    13    14    1
    10    14    15    1
    11    15     1    1
    12     1     2   ar
    13     2     3   ar
    14     3     4   ar
    15     4     5   ar
    16     5    23    1
    17    23    24    1
    18    24    25   ar
    19    25    26   ar
    20    26    27   ar
    21    27    30    1
    22    30    31    1
    23    30    32    2
    24    30    33    2
    25    27    28   ar
    26    28    29   ar
    27     5     6   ar
    28     6     7   ar
    29     7     8   ar
    30     8     9   ar
    31    15    16    1
    32    16    17    1
    33    17    12    1
    34     9     1   ar
    35     9     4   ar
    36    29    24   ar
@<TRIPOS>MOLECULE
*****
 33 36 0 0 0
SMALL
GASTEIGER

@<TRIPOS>ATOM
      1 N          64.6718   90.3041   13.2520 N.ar    1  UNL1       -0.2357
      2 N          65.1210   89.7259   14.5612 N.ar    1  UNL1       -0.1663
      3 C          64.5466   88.3453   14.6796 C.ar    1  UNL1        0.1279
      4 C          63.7423   88.0704   13.4436 C.ar    1  UNL1        0.1099
      5 C          62.9494   86.8740   13.0076 C.ar    1  UNL1        0.2355
      6 N          62.2340   86.8882   11.6893 N.ar    1  UNL1       -0.1889
      7 C          62.3115   88.0988   10.8070 C.ar    1  UNL1        0.2029
      8 N          63.1043   89.2952   11.2431 N.ar    1  UNL1       -0.2049
      9 C          63.8197   89.2810   12.5613 C.ar    1  UNL1        0.1671
     10 C          66.0428   95.7531   11.1475 C.2     1  UNL1        0.4046
     11 O          66.8079   96.7175   12.0045 O.2     1  UNL1       -0.2262
     12 N          65.7001   94.3909   11.6736 N.am    1  UNL1       -0.2459
     13 C          64.9350   93.4265   10.8166 C.3     1  UNL1        0.0987
     14 C          64.5922   92.0643   11.3427 C.3     1  UNL1        0.0461
     15 C          65.0146   91.6663   12.7259 C.3     1  UNL1        0.1102
     16 C          65.7797   92.6307   13.5829 C.3     1  UNL1        0.0461
     17 C          66.1224   93.9930   13.0568 C.3     1  UNL1        0.0987
     18 O          65.6204   96.1510    9.7643 O.3     1  UNL1       -0.4418
     19 C          67.5843   95.3882    9.5158 C.3     1  UNL1        0.0437
     20 C          66.6125   96.1217    8.6396 C.3     1  UNL1        0.1378
     21 C          65.6408   96.8552    7.7634 C.3     1  UNL1        0.0437
     22 C          67.6046   96.0925    7.5149 C.3     1  UNL1        0.0437
     23 O          62.8720   85.6634   13.8900 O.3     1  UNL1       -0.4359
     24 C          62.8590   84.2921   13.2823 C.ar    1  UNL1        0.1473
     25 C          63.2775   84.1003   11.8547 C.ar    1  UNL1        0.0389
     26 C          63.2645   82.7290   11.2471 C.ar    1  UNL1        0.0215
     27 C          62.8330   81.5494   12.0670 C.ar    1  UNL1        0.1059
     28 C          62.4144   81.7411   13.4946 C.ar    1  UNL1        0.0215
     29 C          62.4274   83.1124   14.1023 C.ar    1  UNL1        0.0389
     30 S          62.8199   80.1780   11.4593 S.O2    1  UNL1        0.0105
     31 C          62.8069   78.8067   10.8516 C.3     1  UNL1        0.1816
     32 O          62.4637   79.5906   12.7927 O.2     1  UNL1       -0.1686
     33 O          63.1762   80.7655   10.1259 O.2     1  UNL1       -0.1686
@<TRIPOS>BOND
     1    19    20    1
     2    20    21    1
     3    20    22    1
     4    20    18    1
     5    18    10    1
     6    10    11    2
     7    10    12   am
     8    12    13    1
     9    13    14    1
    10    14    15    1
    11    15     1    1
    12     1     2   ar
    13     2     3   ar
    14     3     4   ar
    15     4     5   ar
    16     5    23    1
    17    23    24    1
    18    24    25   ar
    19    25    26   ar
    20    26    27   ar
    21    27    30    1
    22    30    31    1
    23    30    32    2
    24    30    33    2
    25    27    28   ar
    26    28    29   ar
    27     5     6   ar
    28     6     7   ar
    29     7     8   ar
    30     8     9   ar
    31    15    16    1
    32    16    17    1
    33    17    12    1
    34     9     1   ar
    35     9     4   ar
    36    29    24   ar
@<TRIPOS>MOLECULE
*****
 33 36 0 0 0
SMALL
GASTEIGER

@<TRIPOS>ATOM
      1 N          64.1512   88.1823   14.2189 N.ar    1  UNL1       -0.2357
      2 N          64.1844   86.9663   13.3412 N.ar    1  UNL1       -0.1663
      3 C          63.6860   85.8014   14.1440 C.ar    1  UNL1        0.1279
      4 C          63.3447   86.2975   15.5179 C.ar    1  UNL1        0.1099
      5 C          62.8092   85.5994   16.7328 C.ar    1  UNL1        0.2355
      6 N          62.5613   86.3728   17.9939 N.ar    1  UNL1       -0.1889
      7 C          62.8489   87.8442   18.0401 C.ar    1  UNL1        0.2029
      8 N          63.3843   88.5423   16.8252 N.ar    1  UNL1       -0.2049
      9 C          63.6322   87.7689   15.5641 C.ar    1  UNL1        0.1671
     10 C          65.8042   93.7263   12.6278 C.2     1  UNL1        0.4046
     11 O          66.6923   94.5319   13.5291 O.2     1  UNL1       -0.2262
     12 N          65.3910   92.3403   13.0256 N.am    1  UNL1       -0.2459
     13 C          64.5028   91.5347   12.1243 C.3     1  UNL1        0.0987
     14 C          64.0896   90.1487   12.5221 C.3     1  UNL1        0.0461
     15 C          64.5644   89.5682   13.8211 C.3     1  UNL1        0.1102
     16 C          65.4526   90.3738   14.7224 C.3     1  UNL1        0.0461
     17 C          65.8658   91.7598   14.3246 C.3     1  UNL1        0.0987
     18 O          65.3293   94.3067   11.3288 O.3     1  UNL1       -0.4418
     19 C          66.8641   93.5363   10.0832 C.3     1  UNL1        0.0437
     20 C          66.3155   94.9030   10.3687 C.3     1  UNL1        0.1378
     21 C          65.7671   96.2697   10.6541 C.3     1  UNL1        0.0437
     22 C          67.3018   95.4994    9.4086 C.3     1  UNL1        0.0437
     23 O          62.5217   84.1279   16.6866 O.3     1  UNL1       -0.4359
     24 C          62.6778   83.3733   15.3996 C.ar    1  UNL1        0.1473
     25 C          61.4640   82.9430   14.6305 C.ar    1  UNL1        0.0389
     26 C          61.6202   82.1884   13.3436 C.ar    1  UNL1        0.0215
     27 C          62.9901   81.8642   12.8257 C.ar    1  UNL1        0.1059
     28 C          64.2039   82.2946   13.5948 C.ar    1  UNL1        0.0215
     29 C          64.0478   83.0491   14.8818 C.ar    1  UNL1        0.0389
     30 S          63.1462   81.1096   11.5388 S.O2    1  UNL1        0.0105
     31 C          63.3023   80.3550   10.2518 C.3     1  UNL1        0.1816
     32 O          63.6623   82.3510   10.8735 O.2     1  UNL1       -0.1686
     33 O          62.6301   79.8682   12.2040 O.2     1  UNL1       -0.1686
@<TRIPOS>BOND
     1    19    20    1
     2    20    21    1
     3    20    22    1
     4    20    18    1
     5    18    10    1
     6    10    11    2
     7    10    12   am
     8    12    13    1
     9    13    14    1
    10    14    15    1
    11    15     1    1
    12     1     2   ar
    13     2     3   ar
    14     3     4   ar
    15     4     5   ar
    16     5    23    1
    17    23    24    1
    18    24    25   ar
    19    25    26   ar
    20    26    27   ar
    21    27    30    1
    22    30    31    1
    23    30    32    2
    24    30    33    2
    25    27    28   ar
    26    28    29   ar
    27     5     6   ar
    28     6     7   ar
    29     7     8   ar
    30     8     9   ar
    31    15    16    1
    32    16    17    1
    33    17    12    1
    34     9     1   ar
    35     9     4   ar
    36    29    24   ar
@<TRIPOS>MOLECULE
*****
 33 36 0 0 0
SMALL
GASTEIGER

@<TRIPOS>ATOM
      1 N          63.4018   86.6839   13.2387 N.ar    1  UNL1       -0.2357
      2 N          63.4602   87.5736   12.0325 N.ar    1  UNL1       -0.1663
      3 C          63.5156   88.9953   12.5074 C.ar    1  UNL1        0.1279
      4 C          63.4915   88.9842   14.0073 C.ar    1  UNL1        0.1099
      5 C          63.5245   90.0904   15.0198 C.ar    1  UNL1        0.2355
      6 N          63.4871   89.7681   16.4843 N.ar    1  UNL1       -0.1889
      7 C          63.4168   88.3395   16.9362 C.ar    1  UNL1        0.2029
      8 N          63.3839   87.2333   15.9236 N.ar    1  UNL1       -0.2049
      9 C          63.4212   87.5557   14.4592 C.ar    1  UNL1        0.1671
     10 C          63.1375   80.6898   13.1903 C.2     1  UNL1        0.4046
     11 O          63.9472   79.8954   14.1719 O.2     1  UNL1       -0.2262
     12 N          63.2036   82.1883   13.2024 N.am    1  UNL1       -0.2459
     13 C          62.3940   82.9827   12.2209 C.3     1  UNL1        0.0987
     14 C          62.4601   84.4812   12.2330 C.3     1  UNL1        0.0461
     15 C          63.3358   85.1854   13.2266 C.3     1  UNL1        0.1102
     16 C          64.1454   84.3910   14.2082 C.3     1  UNL1        0.0461
     17 C          64.0793   82.8925   14.1961 C.3     1  UNL1        0.0987
     18 O          62.2619   79.9858   12.1967 O.3     1  UNL1       -0.4418
     19 C          62.4830   78.1197   11.2122 C.3     1  UNL1        0.0437
     20 C          62.8279   79.5414   10.8806 C.3     1  UNL1        0.1378
     21 C          63.1728   80.9630   10.5489 C.3     1  UNL1        0.0437
     22 C          63.3940   79.0971    9.5644 C.3     1  UNL1        0.0437
     23 O          63.5948   91.5190   14.5678 O.3     1  UNL1       -0.4359
     24 C          64.5440   91.9143   13.4757 C.ar    1  UNL1        0.1473
     25 C          65.9648   92.2629   13.8068 C.ar    1  UNL1        0.0389
     26 C          66.9141   92.6582   12.7147 C.ar    1  UNL1        0.0215
     27 C          66.4425   92.7048   11.2915 C.ar    1  UNL1        0.1059
     28 C          65.0216   92.3561   10.9604 C.ar    1  UNL1        0.0215
     29 C          64.0724   91.9609   12.0525 C.ar    1  UNL1        0.0389
     30 S          67.3918   93.1000   10.1994 S.O2    1  UNL1        0.0105
     31 C          68.3410   93.4953    9.1073 C.3     1  UNL1        0.1816
     32 O          66.4347   94.1652    9.7530 O.2     1  UNL1       -0.1686
     33 O          68.3489   92.0348   10.6458 O.2     1  UNL1       -0.1686
@<TRIPOS>BOND
     1    19    20    1
     2    20    21    1
     3    20    22    1
     4    20    18    1
     5    18    10    1
     6    10    11    2
     7    10    12   am
     8    12    13    1
     9    13    14    1
    10    14    15    1
    11    15     1    1
    12     1     2   ar
    13     2     3   ar
    14     3     4   ar
    15     4     5   ar
    16     5    23    1
    17    23    24    1
    18    24    25   ar
    19    25    26   ar
    20    26    27   ar
    21    27    30    1
    22    30    31    1
    23    30    32    2
    24    30    33    2
    25    27    28   ar
    26    28    29   ar
    27     5     6   ar
    28     6     7   ar
    29     7     8   ar
    30     8     9   ar
    31    15    16    1
    32    16    17    1
    33    17    12    1
    34     9     1   ar
    35     9     4   ar
    36    29    24   ar
