@<TRIPOS>MOLECULE
*****
 22 23 0 0 0
SMALL
GASTEIGER

@<TRIPOS>ATOM
      1 C          63.6330   90.8540   12.2236 C.ar    1  UNL1        0.1386
      2 C          63.1280   91.2988   10.8831 C.ar    1  UNL1        0.0369
      3 C          62.4216   90.3252    9.9869 C.ar    1  UNL1        0.0031
      4 C          62.2202   88.9068   10.4313 C.ar    1  UNL1        0.0003
      5 C          62.7252   88.4620   11.7718 C.ar    1  UNL1        0.0031
      6 C          63.4316   89.4356   12.6680 C.ar    1  UNL1        0.0369
      7 C          61.5138   87.9332    9.5352 C.ar    1  UNL1        0.0031
      8 C          62.2156   86.6884    9.0790 C.ar    1  UNL1        0.0207
      9 C          61.5092   85.7148    8.1828 C.ar    1  UNL1        0.0989
     10 N          60.1010   85.9859    7.7429 N.ar    1  UNL1       -0.2423
     11 C          59.3993   87.2306    8.1990 C.ar    1  UNL1        0.0989
     12 C          60.1057   88.2043    9.0952 C.ar    1  UNL1        0.0207
     13 O          64.3394   91.8276   13.1197 O.3     1  UNL1       -0.4740
     14 C          65.7350   92.2703   12.7940 C.3     1  UNL1        0.2207
     15 C          65.9578   93.4166   11.8525 C.3     1  UNL1        0.0951
     16 N          66.0568   94.8156   12.3842 N.3     1  UNL1       -0.3192
     17 H          66.2076   95.4634   11.6109 H       1  UNL1        0.1189
     18 H          66.8387   94.8769   13.0364 H       1  UNL1        0.1189
     19 C          66.0815   93.1637   10.3791 C.3     1  UNL1        0.0193
     20 C          68.3632   92.1556    9.6528 C.3     1  UNL1        0.0000
     21 C          67.4113   93.3138    9.7014 C.3     1  UNL1        0.0014
     22 C          67.7891   94.6221    9.0725 C.3     1  UNL1        0.0000
@<TRIPOS>BOND
     1    20    21    1
     2    21    22    1
     3    21    19    1
     4    19    15    1
     5    15    16    1
     6    15    14    1
     7    14    13    1
     8    13     1    1
     9     1     2   ar
    10     2     3   ar
    11     3     4   ar
    12     4     7    1
    13     7     8   ar
    14     8     9   ar
    15     9    10   ar
    16    10    11   ar
    17    11    12   ar
    18     4     5   ar
    19     5     6   ar
    20     6     1   ar
    21    12     7   ar
    22    16    17    1
    23    16    18    1
@<TRIPOS>MOLECULE
*****
 22 23 0 0 0
SMALL
GASTEIGER

@<TRIPOS>ATOM
      1 C          62.5305   90.3187   11.9362 C.ar    1  UNL1        0.1386
      2 C          63.6078   90.7215   12.8989 C.ar    1  UNL1        0.0369
      3 C          64.7292   91.6069   12.4421 C.ar    1  UNL1        0.0031
      4 C          64.7732   92.0895   11.0226 C.ar    1  UNL1        0.0003
      5 C          63.6958   91.6866   10.0598 C.ar    1  UNL1        0.0031
      6 C          62.5744   90.8012   10.5166 C.ar    1  UNL1        0.0369
      7 C          65.8945   92.9749   10.5658 C.ar    1  UNL1        0.0031
      8 C          65.7743   94.4644   10.6951 C.ar    1  UNL1        0.0207
      9 C          66.8957   95.3498   10.2383 C.ar    1  UNL1        0.0989
     10 N          68.1372   94.7456    9.6523 N.ar    1  UNL1       -0.2423
     11 C          68.2574   93.2561    9.5230 C.ar    1  UNL1        0.0989
     12 C          67.1361   92.3707    9.9798 C.ar    1  UNL1        0.0207
     13 O          61.4091   89.4333   12.3929 O.3     1  UNL1       -0.4740
     14 C          60.7049   88.5469   11.4089 C.3     1  UNL1        0.2207
     15 C          61.4006   87.3383   10.8564 C.3     1  UNL1        0.0951
     16 N          61.5051   86.0902   11.6818 N.3     1  UNL1       -0.3192
     17 H          62.0052   85.3746   11.1543 H       1  UNL1        0.1189
     18 H          60.5695   85.7536   11.9090 H       1  UNL1        0.1189
     19 C          61.9920   87.3779    9.4784 C.3     1  UNL1        0.0193
     20 C          62.9598   85.2621    8.3223 C.3     1  UNL1        0.0000
     21 C          61.8198   86.2088    8.5545 C.3     1  UNL1        0.0014
     22 C          60.5074   85.9863    7.8629 C.3     1  UNL1        0.0000
@<TRIPOS>BOND
     1    20    21    1
     2    21    22    1
     3    21    19    1
     4    19    15    1
     5    15    16    1
     6    15    14    1
     7    14    13    1
     8    13     1    1
     9     1     2   ar
    10     2     3   ar
    11     3     4   ar
    12     4     7    1
    13     7     8   ar
    14     8     9   ar
    15     9    10   ar
    16    10    11   ar
    17    11    12   ar
    18     4     5   ar
    19     5     6   ar
    20     6     1   ar
    21    12     7   ar
    22    16    17    1
    23    16    18    1
@<TRIPOS>MOLECULE
*****
 22 23 0 0 0
SMALL
GASTEIGER

@<TRIPOS>ATOM
      1 C          63.9028   91.0977   12.3036 C.ar    1  UNL1        0.1386
      2 C          63.5150   91.5306   10.9208 C.ar    1  UNL1        0.0369
      3 C          62.7538   90.5960   10.0281 C.ar    1  UNL1        0.0031
      4 C          62.3804   89.2283   10.5182 C.ar    1  UNL1        0.0003
      5 C          62.7683   88.7954   11.9009 C.ar    1  UNL1        0.0031
      6 C          63.5295   89.7301   12.7936 C.ar    1  UNL1        0.0369
      7 C          61.6192   88.2937    9.6255 C.ar    1  UNL1        0.0031
      8 C          62.1154   86.8953    9.4063 C.ar    1  UNL1        0.0207
      9 C          61.3542   85.9606    8.5136 C.ar    1  UNL1        0.0989
     10 N          60.0967   86.4243    7.8401 N.ar    1  UNL1       -0.2423
     11 C          59.6005   87.8227    8.0593 C.ar    1  UNL1        0.0989
     12 C          60.3617   88.7574    8.9520 C.ar    1  UNL1        0.0207
     13 O          64.6641   92.0324   13.1963 O.3     1  UNL1       -0.4740
     14 C          65.8765   92.7458   12.6757 C.3     1  UNL1        0.2207
     15 C          67.2423   92.1706   12.9074 C.3     1  UNL1        0.0951
     16 N          68.2210   92.0822   11.7741 N.3     1  UNL1       -0.3192
     17 H          69.0917   91.6691   12.1082 H       1  UNL1        0.1189
     18 H          68.4057   93.0172   11.4107 H       1  UNL1        0.1189
     19 C          67.6294   91.6838   14.2724 C.3     1  UNL1        0.0193
     20 C          66.3302   92.6467   16.3058 C.3     1  UNL1        0.0000
     21 C          67.5600   92.6133   15.4477 C.3     1  UNL1        0.0014
     22 C          68.7204   93.5093   15.7649 C.3     1  UNL1        0.0000
@<TRIPOS>BOND
     1    20    21    1
     2    21    22    1
     3    21    19    1
     4    19    15    1
     5    15    16    1
     6    15    14    1
     7    14    13    1
     8    13     1    1
     9     1     2   ar
    10     2     3   ar
    11     3     4   ar
    12     4     7    1
    13     7     8   ar
    14     8     9   ar
    15     9    10   ar
    16    10    11   ar
    17    11    12   ar
    18     4     5   ar
    19     5     6   ar
    20     6     1   ar
    21    12     7   ar
    22    16    17    1
    23    16    18    1
@<TRIPOS>MOLECULE
*****
 22 23 0 0 0
SMALL
GASTEIGER

@<TRIPOS>ATOM
      1 C          63.7488   90.8187   12.3290 C.ar    1  UNL1        0.1386
      2 C          63.3009   91.2771   10.9729 C.ar    1  UNL1        0.0369
      3 C          62.5788   90.3295   10.0615 C.ar    1  UNL1        0.0031
      4 C          62.3046   88.9235   10.5062 C.ar    1  UNL1        0.0003
      5 C          62.7525   88.4651   11.8624 C.ar    1  UNL1        0.0031
      6 C          63.4746   89.4126   12.7738 C.ar    1  UNL1        0.0369
      7 C          61.5824   87.9759    9.5949 C.ar    1  UNL1        0.0031
      8 C          60.1994   88.3036    9.1156 C.ar    1  UNL1        0.0207
      9 C          59.4772   87.3561    8.2043 C.ar    1  UNL1        0.0989
     10 N          60.1382   86.0808    7.7721 N.ar    1  UNL1       -0.2423
     11 C          61.5212   85.7531    8.2513 C.ar    1  UNL1        0.0989
     12 C          62.2434   86.7007    9.1627 C.ar    1  UNL1        0.0207
     13 O          64.4710   91.7662   13.2404 O.3     1  UNL1       -0.4740
     14 C          64.7438   91.3772   14.6631 C.3     1  UNL1        0.2207
     15 C          65.3482   92.3714   15.6098 C.3     1  UNL1        0.0951
     16 N          64.7397   92.5831   16.9644 N.3     1  UNL1       -0.3192
     17 H          65.2745   93.2887   17.4708 H       1  UNL1        0.1189
     18 H          64.7553   91.7061   17.4850 H       1  UNL1        0.1189
     19 C          66.5613   93.1539   15.2019 C.3     1  UNL1        0.0193
     20 C          68.1993   91.8655   13.6506 C.3     1  UNL1        0.0000
     21 C          67.8703   92.4524   14.9911 C.3     1  UNL1        0.0014
     22 C          68.8503   92.3379   16.1210 C.3     1  UNL1        0.0000
@<TRIPOS>BOND
     1    20    21    1
     2    21    22    1
     3    21    19    1
     4    19    15    1
     5    15    16    1
     6    15    14    1
     7    14    13    1
     8    13     1    1
     9     1     2   ar
    10     2     3   ar
    11     3     4   ar
    12     4     7    1
    13     7     8   ar
    14     8     9   ar
    15     9    10   ar
    16    10    11   ar
    17    11    12   ar
    18     4     5   ar
    19     5     6   ar
    20     6     1   ar
    21    12     7   ar
    22    16    17    1
    23    16    18    1
@<TRIPOS>MOLECULE
*****
 22 23 0 0 0
SMALL
GASTEIGER

@<TRIPOS>ATOM
      1 C          63.6604   90.7310   12.4791 C.ar    1  UNL1        0.1386
      2 C          63.4419   89.2971   12.8614 C.ar    1  UNL1        0.0369
      3 C          62.7709   88.3590   11.9024 C.ar    1  UNL1        0.0031
      4 C          62.3183   88.8548   10.5610 C.ar    1  UNL1        0.0003
      5 C          62.5368   90.2887   10.1787 C.ar    1  UNL1        0.0031
      6 C          63.2078   91.2268   11.1377 C.ar    1  UNL1        0.0369
      7 C          61.6473   87.9167    9.6020 C.ar    1  UNL1        0.0031
      8 C          60.2810   88.2366    9.0720 C.ar    1  UNL1        0.0207
      9 C          59.6100   87.2985    8.1130 C.ar    1  UNL1        0.0989
     10 N          60.3053   86.0405    7.6840 N.ar    1  UNL1       -0.2423
     11 C          61.6715   85.7207    8.2140 C.ar    1  UNL1        0.0989
     12 C          62.3425   86.6587    9.1730 C.ar    1  UNL1        0.0207
     13 O          64.3314   91.6691   13.4381 O.3     1  UNL1       -0.4740
     14 C          65.7387   91.4049   13.8849 C.3     1  UNL1        0.2207
     15 C          66.8448   92.3263   13.4636 C.3     1  UNL1        0.0951
     16 N          68.2745   91.8946   13.6031 N.3     1  UNL1       -0.3192
     17 H          68.8883   92.6387   13.2712 H       1  UNL1        0.1189
     18 H          68.4310   91.0525   13.0493 H       1  UNL1        0.1189
     19 C          66.5212   93.6794   12.9029 C.3     1  UNL1        0.0193
     20 C          66.5550   92.6951   10.4988 C.3     1  UNL1        0.0000
     21 C          66.3270   93.8522   11.4256 C.3     1  UNL1        0.0014
     22 C          65.9046   95.1822   10.8751 C.3     1  UNL1        0.0000
@<TRIPOS>BOND
     1    20    21    1
     2    21    22    1
     3    21    19    1
     4    19    15    1
     5    15    16    1
     6    15    14    1
     7    14    13    1
     8    13     1    1
     9     1     2   ar
    10     2     3   ar
    11     3     4   ar
    12     4     7    1
    13     7     8   ar
    14     8     9   ar
    15     9    10   ar
    16    10    11   ar
    17    11    12   ar
    18     4     5   ar
    19     5     6   ar
    20     6     1   ar
    21    12     7   ar
    22    16    17    1
    23    16    18    1
@<TRIPOS>MOLECULE
*****
 22 23 0 0 0
SMALL
GASTEIGER

@<TRIPOS>ATOM
      1 C          63.6746   83.7805   11.2215 C.ar    1  UNL1        0.1386
      2 C          62.6857   84.5929   12.0038 C.ar    1  UNL1        0.0369
      3 C          61.8082   85.5861   11.3012 C.ar    1  UNL1        0.0031
      4 C          61.9197   85.7669    9.8164 C.ar    1  UNL1        0.0003
      5 C          62.9086   84.9545    9.0341 C.ar    1  UNL1        0.0031
      6 C          63.7861   83.9613    9.7367 C.ar    1  UNL1        0.0369
      7 C          61.0423   86.7601    9.1138 C.ar    1  UNL1        0.0031
      8 C          61.1605   88.2215    9.4308 C.ar    1  UNL1        0.0207
      9 C          60.2830   89.2147    8.7282 C.ar    1  UNL1        0.0989
     10 N          59.2874   88.7465    7.7086 N.ar    1  UNL1       -0.2423
     11 C          59.1692   87.2852    7.3917 C.ar    1  UNL1        0.0989
     12 C          60.0466   86.2920    8.0943 C.ar    1  UNL1        0.0207
     13 O          64.5520   82.7873   11.9241 O.3     1  UNL1       -0.4740
     14 C          63.9513   81.8012   12.8815 C.3     1  UNL1        0.2207
     15 C          63.4816   82.2569   14.2312 C.3     1  UNL1        0.0951
     16 N          62.1777   81.7577   14.7794 N.3     1  UNL1       -0.3192
     17 H          62.0170   82.1667   15.6999 H       1  UNL1        0.1189
     18 H          62.2093   80.7414   14.8598 H       1  UNL1        0.1189
     19 C          64.3159   83.2117   15.0327 C.3     1  UNL1        0.0193
     20 C          62.4791   84.7889   15.9754 C.3     1  UNL1        0.0000
     21 C          63.8108   84.5961   15.3127 C.3     1  UNL1        0.0014
     22 C          64.6376   85.7878   14.9298 C.3     1  UNL1        0.0000
@<TRIPOS>BOND
     1    20    21    1
     2    21    22    1
     3    21    19    1
     4    19    15    1
     5    15    16    1
     6    15    14    1
     7    14    13    1
     8    13     1    1
     9     1     2   ar
    10     2     3   ar
    11     3     4   ar
    12     4     7    1
    13     7     8   ar
    14     8     9   ar
    15     9    10   ar
    16    10    11   ar
    17    11    12   ar
    18     4     5   ar
    19     5     6   ar
    20     6     1   ar
    21    12     7   ar
    22    16    17    1
    23    16    18    1
@<TRIPOS>MOLECULE
*****
 22 23 0 0 0
SMALL
GASTEIGER

@<TRIPOS>ATOM
      1 C          63.8239   90.8552   12.3167 C.ar    1  UNL1        0.1386
      2 C          63.4463   89.4705   12.7524 C.ar    1  UNL1        0.0369
      3 C          62.6786   88.5756   11.8251 C.ar    1  UNL1        0.0031
      4 C          62.2886   89.0655   10.4621 C.ar    1  UNL1        0.0003
      5 C          62.6662   90.4502   10.0263 C.ar    1  UNL1        0.0031
      6 C          63.4338   91.3451   10.9536 C.ar    1  UNL1        0.0369
      7 C          61.5209   88.1706    9.5348 C.ar    1  UNL1        0.0031
      8 C          62.0329   86.7952    9.2250 C.ar    1  UNL1        0.0207
      9 C          61.2653   85.9003    8.2977 C.ar    1  UNL1        0.0989
     10 N          59.9856   86.3808    7.6802 N.ar    1  UNL1       -0.2423
     11 C          59.4736   87.7563    7.9899 C.ar    1  UNL1        0.0989
     12 C          60.2412   88.6511    8.9172 C.ar    1  UNL1        0.0207
     13 O          64.5915   91.7501   13.2440 O.3     1  UNL1       -0.4740
     14 C          65.9343   92.2789   12.8352 C.3     1  UNL1        0.2207
     15 C          66.3434   93.6686   13.2245 C.3     1  UNL1        0.0951
     16 N          66.0536   94.8202   12.3081 N.3     1  UNL1       -0.3192
     17 H          66.3980   95.6837   12.7277 H       1  UNL1        0.1189
     18 H          65.0470   94.8920   12.1601 H       1  UNL1        0.1189
     19 C          67.0422   93.9067   14.5303 C.3     1  UNL1        0.0193
     20 C          65.7325   92.5555   16.3216 C.3     1  UNL1        0.0000
     21 C          67.0126   92.8549   15.5994 C.3     1  UNL1        0.0014
     22 C          68.2632   92.1027   15.9463 C.3     1  UNL1        0.0000
@<TRIPOS>BOND
     1    20    21    1
     2    21    22    1
     3    21    19    1
     4    19    15    1
     5    15    16    1
     6    15    14    1
     7    14    13    1
     8    13     1    1
     9     1     2   ar
    10     2     3   ar
    11     3     4   ar
    12     4     7    1
    13     7     8   ar
    14     8     9   ar
    15     9    10   ar
    16    10    11   ar
    17    11    12   ar
    18     4     5   ar
    19     5     6   ar
    20     6     1   ar
    21    12     7   ar
    22    16    17    1
    23    16    18    1
@<TRIPOS>MOLECULE
*****
 22 23 0 0 0
SMALL
GASTEIGER

@<TRIPOS>ATOM
      1 C          62.8616   90.6384   11.4273 C.ar    1  UNL1        0.1386
      2 C          63.8651   91.6325   10.9225 C.ar    1  UNL1        0.0369
      3 C          65.0035   92.0609   11.8004 C.ar    1  UNL1        0.0031
      4 C          65.1384   91.4951   13.1830 C.ar    1  UNL1        0.0003
      5 C          64.1350   90.5010   13.6877 C.ar    1  UNL1        0.0031
      6 C          62.9966   90.0727   12.8099 C.ar    1  UNL1        0.0369
      7 C          66.2768   91.9235   14.0608 C.ar    1  UNL1        0.0031
      8 C          67.6843   91.8653   13.5455 C.ar    1  UNL1        0.0207
      9 C          68.8226   92.2937   14.4233 C.ar    1  UNL1        0.0989
     10 N          68.5536   92.7802   15.8165 N.ar    1  UNL1       -0.2423
     11 C          67.1461   92.8383   16.3318 C.ar    1  UNL1        0.0989
     12 C          66.0077   92.4099   15.4539 C.ar    1  UNL1        0.0207
     13 O          61.7233   90.2101   10.5495 O.3     1  UNL1       -0.4740
     14 C          61.7591   88.8708    9.8750 C.3     1  UNL1        0.2207
     15 C          61.1194   87.6832   10.5312 C.3     1  UNL1        0.0951
     16 N          60.0285   87.8817   11.5414 N.3     1  UNL1       -0.3192
     17 H          59.7115   86.9741   11.8822 H       1  UNL1        0.1189
     18 H          59.2477   88.3732   11.1065 H       1  UNL1        0.1189
     19 C          61.5706   86.2972   10.1771 C.3     1  UNL1        0.0193
     20 C          60.4608   86.0628    7.8397 C.3     1  UNL1        0.0000
     21 C          61.6470   85.8778    8.7389 C.3     1  UNL1        0.0014
     22 C          62.9097   85.2734    8.2000 C.3     1  UNL1        0.0000
@<TRIPOS>BOND
     1    20    21    1
     2    21    22    1
     3    21    19    1
     4    19    15    1
     5    15    16    1
     6    15    14    1
     7    14    13    1
     8    13     1    1
     9     1     2   ar
    10     2     3   ar
    11     3     4   ar
    12     4     7    1
    13     7     8   ar
    14     8     9   ar
    15     9    10   ar
    16    10    11   ar
    17    11    12   ar
    18     4     5   ar
    19     5     6   ar
    20     6     1   ar
    21    12     7   ar
    22    16    17    1
    23    16    18    1
@<TRIPOS>MOLECULE
*****
 22 23 0 0 0
SMALL
GASTEIGER

@<TRIPOS>ATOM
      1 C          61.3621   89.4796   10.6095 C.ar    1  UNL1        0.1386
      2 C          62.0314   90.5570    9.8087 C.ar    1  UNL1        0.0369
      3 C          63.1788   91.3245   10.3955 C.ar    1  UNL1        0.0031
      4 C          63.6569   91.0147   11.7831 C.ar    1  UNL1        0.0003
      5 C          62.9876   89.9374   12.5838 C.ar    1  UNL1        0.0031
      6 C          61.8402   89.1698   11.9971 C.ar    1  UNL1        0.0369
      7 C          64.8043   91.7823   12.3698 C.ar    1  UNL1        0.0031
      8 C          65.3798   92.9534   11.6300 C.ar    1  UNL1        0.0207
      9 C          66.5272   93.7209   12.2167 C.ar    1  UNL1        0.0989
     10 N          67.0991   93.3175   13.5434 N.ar    1  UNL1       -0.2423
     11 C          66.5237   92.1464   14.2832 C.ar    1  UNL1        0.0989
     12 C          65.3763   91.3788   13.6965 C.ar    1  UNL1        0.0207
     13 O          60.2147   88.7120   10.0227 O.3     1  UNL1       -0.4740
     14 C          60.2382   88.3173    8.5758 C.3     1  UNL1        0.2207
     15 C          59.7331   86.9681    8.1581 C.3     1  UNL1        0.0951
     16 N          58.2830   86.7809    7.8232 N.3     1  UNL1       -0.3192
     17 H          58.1171   85.8089    7.5621 H       1  UNL1        0.1189
     18 H          58.0326   87.3898    7.0442 H       1  UNL1        0.1189
     19 C          60.6781   85.8061    8.0753 C.3     1  UNL1        0.0193
     20 C          61.6260   85.6655   10.4902 C.3     1  UNL1        0.0000
     21 C          61.8499   85.7245    9.0082 C.3     1  UNL1        0.0014
     22 C          63.2456   85.7018    8.4590 C.3     1  UNL1        0.0000
@<TRIPOS>BOND
     1    20    21    1
     2    21    22    1
     3    21    19    1
     4    19    15    1
     5    15    16    1
     6    15    14    1
     7    14    13    1
     8    13     1    1
     9     1     2   ar
    10     2     3   ar
    11     3     4   ar
    12     4     7    1
    13     7     8   ar
    14     8     9   ar
    15     9    10   ar
    16    10    11   ar
    17    11    12   ar
    18     4     5   ar
    19     5     6   ar
    20     6     1   ar
    21    12     7   ar
    22    16    17    1
    23    16    18    1
