@<TRIPOS>MOLECULE
*****
 33 36 0 0 0
SMALL
GASTEIGER

@<TRIPOS>ATOM
      1 C          64.1140   85.6191   15.0525 C.2     1  UNL1        0.2327
      2 O          63.9002   85.6879   16.5356 O.2     1  UNL1       -0.2743
      3 N          64.2026   86.8820   14.2481 N.am    1  UNL1       -0.2537
      4 H          64.3430   86.8368   13.2747 H       1  UNL1        0.1577
      5 C          64.0775   88.2138   14.9267 C.ar    1  UNL1        0.2227
      6 N          63.1808   88.3665   16.1194 N.ar    1  UNL1       -0.2120
      7 C          63.0557   89.6984   16.7980 C.ar    1  UNL1        0.1034
      8 C          63.8272   90.8775   16.2839 C.ar    1  UNL1        0.0400
      9 C          64.7240   90.7248   15.0911 C.ar    1  UNL1        0.0873
     10 N          64.8491   89.3930   14.4126 N.ar    1  UNL1       -0.2134
     11 C          65.4955   91.9040   14.5770 C.ar    1  UNL1        0.0399
     12 C          66.3819   92.8001   15.3901 C.ar    1  UNL1        0.1021
     13 N          66.9503   93.8439   14.4751 N.ar    1  UNL1       -0.2269
     14 C          66.4152   93.5930   13.0965 C.ar    1  UNL1        0.1406
     15 N          66.6305   94.3013   11.7919 N.ar    1  UNL1       -0.3374
     16 C          65.9466   93.8107   10.5504 C.ar    1  UNL1        0.0735
     17 C          65.0474   92.6117   10.6133 C.ar    1  UNL1        0.0186
     18 C          64.8322   91.9033   11.9179 C.ar    1  UNL1        0.0046
     19 C          65.5160   92.3940   13.1594 C.ar    1  UNL1        0.0369
     20 H          67.2206   95.0883   11.7506 H       1  UNL1        0.1674
     21 C          64.2391   84.2872   14.3739 C.3     1  UNL1        0.1118
     22 C          62.4689   84.8541   10.8674 C.ar    1  UNL1        0.0641
     23 C          63.2223   83.8816   10.0091 C.ar    1  UNL1        0.0158
     24 C          64.3146   83.0444   10.6056 C.ar    1  UNL1        0.0010
     25 C          64.6536   83.1796   12.0605 C.ar    1  UNL1       -0.0037
     26 C          63.9002   84.1520   12.9189 C.ar    1  UNL1       -0.0118
     27 C          62.8079   84.9892   12.3223 C.ar    1  UNL1        0.0121
     28 N          61.3766   85.6913   10.2708 N.pl3   1  UNL1       -0.2187
     29 H          60.5566   85.2632    9.9337 H       1  UNL1        0.1734
     30 C          61.6905   88.6701   10.1050 C.3     1  UNL1        0.1996
     31 S          61.5336   87.1807   10.1879 S.O2    1  UNL1        0.0558
     32 O          60.5933   87.3442   11.3451 O.2     1  UNL1       -0.1544
     33 O          62.4739   87.0172    9.0308 O.2     1  UNL1       -0.1544
@<TRIPOS>BOND
     1    30    31    1
     2    31    32    2
     3    31    33    2
     4    31    28    1
     5    28    22    1
     6    22    23   ar
     7    23    24   ar
     8    24    25   ar
     9    25    26   ar
    10    26    21    1
    11    21     1    1
    12     1     2    2
    13     1     3   am
    14     3     5    1
    15     5     6   ar
    16     6     7   ar
    17     7     8   ar
    18     8     9   ar
    19     9    11    1
    20    11    12   ar
    21    12    13   ar
    22    13    14   ar
    23    14    15   ar
    24    15    16   ar
    25    16    17   ar
    26    17    18   ar
    27    18    19   ar
    28     9    10   ar
    29    26    27   ar
    30    27    22   ar
    31    10     5   ar
    32    19    11   ar
    33    19    14    1
    34    28    29    1
    35     3     4    1
    36    15    20    1
@<TRIPOS>MOLECULE
*****
 33 36 0 0 0
SMALL
GASTEIGER

@<TRIPOS>ATOM
      1 C          63.1217   89.5923   13.0490 C.2     1  UNL1        0.2327
      2 O          63.7697   88.2707   13.3386 O.2     1  UNL1       -0.2743
      3 N          62.1013   89.7036   11.9552 N.am    1  UNL1       -0.2537
      4 H          61.6761   90.5709   11.7652 H       1  UNL1        0.1577
      5 C          61.7289   88.4935   11.1509 C.ar    1  UNL1        0.2227
      6 N          60.5960   88.5644   10.1703 N.ar    1  UNL1       -0.2120
      7 C          60.2235   87.3543    9.3660 C.ar    1  UNL1        0.1034
      8 C          60.9839   86.0733    9.5423 C.ar    1  UNL1        0.0400
      9 C          62.1168   86.0025   10.5230 C.ar    1  UNL1        0.0873
     10 N          62.4892   87.2126   11.3272 N.ar    1  UNL1       -0.2134
     11 C          62.8771   84.7216   10.6993 C.ar    1  UNL1        0.0399
     12 C          63.6316   83.9896    9.6293 C.ar    1  UNL1        0.1021
     13 N          64.2372   82.7634   10.2453 N.ar    1  UNL1       -0.2269
     14 C          63.8571   82.7375   11.6962 C.ar    1  UNL1        0.1406
     15 N          64.1678   81.7682   12.7980 N.ar    1  UNL1       -0.3374
     16 C          63.6379   82.0092   14.1803 C.ar    1  UNL1        0.0735
     17 C          62.7973   83.2195   14.4609 C.ar    1  UNL1        0.0186
     18 C          62.4866   84.1887   13.3591 C.ar    1  UNL1        0.0046
     19 C          63.0165   83.9477   11.9768 C.ar    1  UNL1        0.0369
     20 H          64.7195   80.9739   12.6138 H       1  UNL1        0.1674
     21 C          63.4942   90.8024   13.8533 C.3     1  UNL1        0.1118
     22 C          66.7411   92.6945   12.5773 C.ar    1  UNL1        0.0641
     23 C          67.6972   92.4024   13.6956 C.ar    1  UNL1        0.0158
     24 C          67.2523   91.5771   14.8664 C.ar    1  UNL1        0.0010
     25 C          65.8514   91.0437   14.9191 C.ar    1  UNL1       -0.0037
     26 C          64.8952   91.3357   13.8008 C.ar    1  UNL1       -0.0118
     27 C          65.3401   92.1611   12.6299 C.ar    1  UNL1        0.0121
     28 N          67.1859   93.5198   11.4065 N.pl3   1  UNL1       -0.2187
     29 H          68.0382   93.3175   10.9571 H       1  UNL1        0.1734
     30 C          65.4787   95.7870   10.4344 C.3     1  UNL1        0.1996
     31 S          66.3323   94.6534   10.9204 S.O2    1  UNL1        0.0558
     32 O          66.4456   94.1369    9.5168 O.2     1  UNL1       -0.1544
     33 O          66.2190   95.1700   12.3241 O.2     1  UNL1       -0.1544
@<TRIPOS>BOND
     1    30    31    1
     2    31    32    2
     3    31    33    2
     4    31    28    1
     5    28    22    1
     6    22    23   ar
     7    23    24   ar
     8    24    25   ar
     9    25    26   ar
    10    26    21    1
    11    21     1    1
    12     1     2    2
    13     1     3   am
    14     3     5    1
    15     5     6   ar
    16     6     7   ar
    17     7     8   ar
    18     8     9   ar
    19     9    11    1
    20    11    12   ar
    21    12    13   ar
    22    13    14   ar
    23    14    15   ar
    24    15    16   ar
    25    16    17   ar
    26    17    18   ar
    27    18    19   ar
    28     9    10   ar
    29    26    27   ar
    30    27    22   ar
    31    10     5   ar
    32    19    11   ar
    33    19    14    1
    34    28    29    1
    35     3     4    1
    36    15    20    1
@<TRIPOS>MOLECULE
*****
 33 36 0 0 0
SMALL
GASTEIGER

@<TRIPOS>ATOM
      1 C          63.1371   84.1659   15.0205 C.2     1  UNL1        0.2327
      2 O          61.7064   84.5983   15.1490 O.2     1  UNL1       -0.2743
      3 N          64.2428   85.1471   15.2745 N.am    1  UNL1       -0.2537
      4 H          65.1817   84.8633   15.1902 H       1  UNL1        0.1577
      5 C          63.9181   86.5607   15.6570 C.ar    1  UNL1        0.2227
      6 N          63.2229   86.8455   16.9553 N.ar    1  UNL1       -0.2120
      7 C          62.8982   88.2591   17.3378 C.ar    1  UNL1        0.1034
      8 C          63.2686   89.3878   16.4219 C.ar    1  UNL1        0.0400
      9 C          63.9638   89.1030   15.1235 C.ar    1  UNL1        0.0873
     10 N          64.2885   87.6894   14.7411 N.ar    1  UNL1       -0.2134
     11 C          64.3342   90.2317   14.2077 C.ar    1  UNL1        0.0399
     12 C          65.2523   91.3708   14.5388 C.ar    1  UNL1        0.1021
     13 N          65.3370   92.2625   13.3357 N.ar    1  UNL1       -0.2269
     14 C          64.4713   91.6747   12.2610 C.ar    1  UNL1        0.1406
     15 N          64.1673   92.1201   10.8614 N.ar    1  UNL1       -0.3374
     16 C          63.2435   91.3104   10.0006 C.ar    1  UNL1        0.0735
     17 C          62.6237   90.0552   10.5396 C.ar    1  UNL1        0.0186
     18 C          62.9277   89.6098   11.9392 C.ar    1  UNL1        0.0046
     19 C          63.8515   90.4195   12.8000 C.ar    1  UNL1        0.0369
     20 H          64.5741   92.9439   10.5076 H       1  UNL1        0.1674
     21 C          63.4618   82.7523   14.6380 C.3     1  UNL1        0.1118
     22 C          63.5848   82.8920   10.6737 C.ar    1  UNL1        0.0641
     23 C          63.2268   81.4767   10.3290 C.ar    1  UNL1        0.0158
     24 C          62.9471   80.4867   11.4205 C.ar    1  UNL1        0.0010
     25 C          63.0255   80.9118   12.8569 C.ar    1  UNL1       -0.0037
     26 C          63.3835   82.3271   13.2016 C.ar    1  UNL1       -0.0118
     27 C          63.6631   83.3171   12.1100 C.ar    1  UNL1        0.0121
     28 N          63.8644   83.8821    9.5821 N.pl3   1  UNL1       -0.2187
     29 H          64.6989   83.8202    9.0634 H       1  UNL1        0.1734
     30 C          61.8809   86.0506    8.9797 C.3     1  UNL1        0.1996
     31 S          62.8727   84.9664    9.2809 S.O2    1  UNL1        0.0558
     32 O          62.7000   85.2164   10.7498 O.2     1  UNL1       -0.1544
     33 O          63.0454   84.7163    7.8120 O.2     1  UNL1       -0.1544
@<TRIPOS>BOND
     1    30    31    1
     2    31    32    2
     3    31    33    2
     4    31    28    1
     5    28    22    1
     6    22    23   ar
     7    23    24   ar
     8    24    25   ar
     9    25    26   ar
    10    26    21    1
    11    21     1    1
    12     1     2    2
    13     1     3   am
    14     3     5    1
    15     5     6   ar
    16     6     7   ar
    17     7     8   ar
    18     8     9   ar
    19     9    11    1
    20    11    12   ar
    21    12    13   ar
    22    13    14   ar
    23    14    15   ar
    24    15    16   ar
    25    16    17   ar
    26    17    18   ar
    27    18    19   ar
    28     9    10   ar
    29    26    27   ar
    30    27    22   ar
    31    10     5   ar
    32    19    11   ar
    33    19    14    1
    34    28    29    1
    35     3     4    1
    36    15    20    1
@<TRIPOS>MOLECULE
*****
 33 36 0 0 0
SMALL
GASTEIGER

@<TRIPOS>ATOM
      1 C          63.0588   84.2713   15.0151 C.2     1  UNL1        0.2327
      2 O          61.6467   84.7186   15.2515 O.2     1  UNL1       -0.2743
      3 N          64.1850   85.2565   15.1197 N.am    1  UNL1       -0.2537
      4 H          65.1118   84.9629   14.9646 H       1  UNL1        0.1577
      5 C          63.8992   86.6890   15.4607 C.ar    1  UNL1        0.2227
      6 N          63.3007   87.0382   16.7910 N.ar    1  UNL1       -0.2120
      7 C          63.0149   88.4707   17.1319 C.ar    1  UNL1        0.1034
      8 C          63.3276   89.5540   16.1425 C.ar    1  UNL1        0.0400
      9 C          63.9262   89.2046   14.8121 C.ar    1  UNL1        0.0873
     10 N          64.2119   87.7722   14.4713 N.ar    1  UNL1       -0.2134
     11 C          64.2389   90.2879   13.8228 C.ar    1  UNL1        0.0399
     12 C          63.6870   90.3981   12.4324 C.ar    1  UNL1        0.1021
     13 N          64.2654   91.6294   11.8004 N.ar    1  UNL1       -0.2269
     14 C          65.1748   92.2801   12.8003 C.ar    1  UNL1        0.1406
     15 N          66.0157   93.5204   12.7340 N.ar    1  UNL1       -0.3374
     16 C          66.8402   93.9316   13.9177 C.ar    1  UNL1        0.0735
     17 C          66.8237   93.1025   15.1676 C.ar    1  UNL1        0.0186
     18 C          65.9829   91.8621   15.2338 C.ar    1  UNL1        0.0046
     19 C          65.1584   91.4509   14.0502 C.ar    1  UNL1        0.0369
     20 H          66.0265   94.0646   11.9137 H       1  UNL1        0.1674
     21 C          63.3446   82.8388   14.6742 C.3     1  UNL1        0.1118
     22 C          63.5659   82.9045   10.7122 C.ar    1  UNL1        0.0641
     23 C          63.2276   81.4801   10.3858 C.ar    1  UNL1        0.0158
     24 C          62.9283   80.5086   11.4888 C.ar    1  UNL1        0.0010
     25 C          62.9673   80.9614   12.9182 C.ar    1  UNL1       -0.0037
     26 C          63.3056   82.3858   13.2447 C.ar    1  UNL1       -0.0118
     27 C          63.6049   83.3574   12.1417 C.ar    1  UNL1        0.0121
     28 N          63.8651   83.8760    9.6092 N.pl3   1  UNL1       -0.2187
     29 H          64.7091   83.8060    9.1071 H       1  UNL1        0.1734
     30 C          61.8920   86.0323    8.9333 C.3     1  UNL1        0.1996
     31 S          62.8786   84.9542    9.2713 S.O2    1  UNL1        0.0558
     32 O          62.6941   85.2431   10.7316 O.2     1  UNL1       -0.1544
     33 O          63.0630   84.6652    7.8110 O.2     1  UNL1       -0.1544
@<TRIPOS>BOND
     1    30    31    1
     2    31    32    2
     3    31    33    2
     4    31    28    1
     5    28    22    1
     6    22    23   ar
     7    23    24   ar
     8    24    25   ar
     9    25    26   ar
    10    26    21    1
    11    21     1    1
    12     1     2    2
    13     1     3   am
    14     3     5    1
    15     5     6   ar
    16     6     7   ar
    17     7     8   ar
    18     8     9   ar
    19     9    11    1
    20    11    12   ar
    21    12    13   ar
    22    13    14   ar
    23    14    15   ar
    24    15    16   ar
    25    16    17   ar
    26    17    18   ar
    27    18    19   ar
    28     9    10   ar
    29    26    27   ar
    30    27    22   ar
    31    10     5   ar
    32    19    11   ar
    33    19    14    1
    34    28    29    1
    35     3     4    1
    36    15    20    1
@<TRIPOS>MOLECULE
*****
 33 36 0 0 0
SMALL
GASTEIGER

@<TRIPOS>ATOM
      1 C          63.9538   89.5088   15.0676 C.2     1  UNL1        0.2327
      2 O          62.6389   89.7051   15.7624 O.2     1  UNL1       -0.2743
      3 N          64.4991   88.1253   14.8713 N.am    1  UNL1       -0.2537
      4 H          65.3620   87.9965   14.4153 H       1  UNL1        0.1577
      5 C          63.7295   86.9381   15.3696 C.ar    1  UNL1        0.2227
      6 N          63.1199   86.9608   16.7399 N.ar    1  UNL1       -0.2120
      7 C          62.3504   85.7736   17.2382 C.ar    1  UNL1        0.1034
      8 C          62.1905   84.5636   16.3662 C.ar    1  UNL1        0.0400
      9 C          62.8002   84.5409   14.9958 C.ar    1  UNL1        0.0873
     10 N          63.5697   85.7281   14.4976 N.ar    1  UNL1       -0.2134
     11 C          62.6403   83.3309   14.1237 C.ar    1  UNL1        0.0399
     12 C          61.8922   82.0804   14.4795 C.ar    1  UNL1        0.1021
     13 N          61.9900   81.1357   13.3184 N.ar    1  UNL1       -0.2269
     14 C          62.7986   81.8023   12.2452 C.ar    1  UNL1        0.1406
     15 N          63.2208   81.3493   10.8790 N.ar    1  UNL1       -0.3374
     16 C          64.0448   82.2529   10.0106 C.ar    1  UNL1        0.0735
     17 C          64.4467   83.6097   10.5083 C.ar    1  UNL1        0.0186
     18 C          64.0245   84.0628   11.8745 C.ar    1  UNL1        0.0046
     19 C          63.2005   83.1591   12.7429 C.ar    1  UNL1        0.0369
     20 H          62.9570   80.4588   10.5524 H       1  UNL1        0.1674
     21 C          64.7233   90.6960   14.5693 C.3     1  UNL1        0.1118
     22 C          65.2713   92.7046   11.1906 C.ar    1  UNL1        0.0641
     23 C          64.2394   92.0647   10.3099 C.ar    1  UNL1        0.0158
     24 C          63.3689   90.9685   10.8490 C.ar    1  UNL1        0.0010
     25 C          63.5301   90.5123   12.2687 C.ar    1  UNL1       -0.0037
     26 C          64.5620   91.1522   13.1495 C.ar    1  UNL1       -0.0118
     27 C          65.4326   92.2484   12.6104 C.ar    1  UNL1        0.0121
     28 N          66.1419   93.8007   10.6516 N.pl3   1  UNL1       -0.2187
     29 H          65.9674   94.7365   10.9028 H       1  UNL1        0.1734
     30 C          68.4149   93.1414    8.8081 C.3     1  UNL1        0.1996
     31 S          67.2784   93.4711    9.7298 S.O2    1  UNL1        0.0558
     32 O          67.7797   92.4539   10.7117 O.2     1  UNL1       -0.1544
     33 O          66.7771   94.4883    8.7480 O.2     1  UNL1       -0.1544
@<TRIPOS>BOND
     1    30    31    1
     2    31    32    2
     3    31    33    2
     4    31    28    1
     5    28    22    1
     6    22    23   ar
     7    23    24   ar
     8    24    25   ar
     9    25    26   ar
    10    26    21    1
    11    21     1    1
    12     1     2    2
    13     1     3   am
    14     3     5    1
    15     5     6   ar
    16     6     7   ar
    17     7     8   ar
    18     8     9   ar
    19     9    11    1
    20    11    12   ar
    21    12    13   ar
    22    13    14   ar
    23    14    15   ar
    24    15    16   ar
    25    16    17   ar
    26    17    18   ar
    27    18    19   ar
    28     9    10   ar
    29    26    27   ar
    30    27    22   ar
    31    10     5   ar
    32    19    11   ar
    33    19    14    1
    34    28    29    1
    35     3     4    1
    36    15    20    1
@<TRIPOS>MOLECULE
*****
 33 36 0 0 0
SMALL
GASTEIGER

@<TRIPOS>ATOM
      1 C          63.1319   89.6771   13.3793 C.2     1  UNL1        0.2327
      2 O          62.1828   89.8287   14.5310 O.2     1  UNL1       -0.2743
      3 N          63.8523   88.3787   13.1671 N.am    1  UNL1       -0.2537
      4 H          64.4752   88.2792   12.4112 H       1  UNL1        0.1577
      5 C          63.6236   87.2318   14.1064 C.ar    1  UNL1        0.2227
      6 N          63.7268   87.4435   15.5877 N.ar    1  UNL1       -0.2120
      7 C          63.4981   86.2966   16.5270 C.ar    1  UNL1        0.1034
      8 C          63.1663   84.9379   15.9849 C.ar    1  UNL1        0.0400
      9 C          63.0631   84.7262   14.5035 C.ar    1  UNL1        0.0873
     10 N          63.2917   85.8731   13.5643 N.ar    1  UNL1       -0.2134
     11 C          62.7312   83.3675   13.9614 C.ar    1  UNL1        0.0399
     12 C          61.9311   82.3099   14.6623 C.ar    1  UNL1        0.1021
     13 N          61.8466   81.1167   13.7573 N.ar    1  UNL1       -0.2269
     14 C          62.5944   81.4368   12.4971 C.ar    1  UNL1        0.1406
     15 N          62.8482   80.6413   11.2510 N.ar    1  UNL1       -0.3374
     16 C          63.6487   81.2370   10.1310 C.ar    1  UNL1        0.0735
     17 C          64.1954   82.6281   10.2571 C.ar    1  UNL1        0.0186
     18 C          63.9416   83.4236   11.5032 C.ar    1  UNL1        0.0046
     19 C          63.1412   82.8279   12.6232 C.ar    1  UNL1        0.0369
     20 H          62.4894   79.7283   11.1682 H       1  UNL1        0.1674
     21 C          63.3606   90.8240   12.4400 C.3     1  UNL1        0.1118
     22 C          67.0359   91.9540   13.4229 C.ar    1  UNL1        0.0641
     23 C          67.4022   92.7920   12.2340 C.ar    1  UNL1        0.0158
     24 C          66.4214   92.9741   11.1138 C.ar    1  UNL1        0.0010
     25 C          65.0742   92.3181   11.1824 C.ar    1  UNL1       -0.0037
     26 C          64.7079   91.4801   12.3713 C.ar    1  UNL1       -0.0118
     27 C          65.6887   91.2980   13.4915 C.ar    1  UNL1        0.0121
     28 N          68.0167   91.7720   14.5431 N.pl3   1  UNL1       -0.2187
     29 H          68.3280   90.8693   14.7830 H       1  UNL1        0.1734
     30 C          69.0297   94.1585   16.0524 C.3     1  UNL1        0.1996
     31 S          68.5232   92.9652   15.2978 S.O2    1  UNL1        0.0558
     32 O          69.7977   92.9238   14.5079 O.2     1  UNL1       -0.1544
     33 O          67.2487   93.0066   16.0876 O.2     1  UNL1       -0.1544
@<TRIPOS>BOND
     1    30    31    1
     2    31    32    2
     3    31    33    2
     4    31    28    1
     5    28    22    1
     6    22    23   ar
     7    23    24   ar
     8    24    25   ar
     9    25    26   ar
    10    26    21    1
    11    21     1    1
    12     1     2    2
    13     1     3   am
    14     3     5    1
    15     5     6   ar
    16     6     7   ar
    17     7     8   ar
    18     8     9   ar
    19     9    11    1
    20    11    12   ar
    21    12    13   ar
    22    13    14   ar
    23    14    15   ar
    24    15    16   ar
    25    16    17   ar
    26    17    18   ar
    27    18    19   ar
    28     9    10   ar
    29    26    27   ar
    30    27    22   ar
    31    10     5   ar
    32    19    11   ar
    33    19    14    1
    34    28    29    1
    35     3     4    1
    36    15    20    1
@<TRIPOS>MOLECULE
*****
 33 36 0 0 0
SMALL
GASTEIGER

@<TRIPOS>ATOM
      1 C          63.1533   89.3965   12.7047 C.2     1  UNL1        0.2327
      2 O          62.1662   88.4423   12.1002 O.2     1  UNL1       -0.2743
      3 N          63.9877   88.9702   13.8760 N.am    1  UNL1       -0.2537
      4 H          64.6355   89.5965   14.2727 H       1  UNL1        0.1577
      5 C          63.8352   87.5899   14.4429 C.ar    1  UNL1        0.2227
      6 N          63.6151   87.4038   15.9150 N.ar    1  UNL1       -0.2120
      7 C          63.4626   86.0235   16.4819 C.ar    1  UNL1        0.1034
      8 C          63.5301   84.8293   15.5767 C.ar    1  UNL1        0.0400
      9 C          63.7501   85.0154   14.1046 C.ar    1  UNL1        0.0873
     10 N          63.9026   86.3957   13.5378 N.ar    1  UNL1       -0.2134
     11 C          63.8176   83.8211   13.1995 C.ar    1  UNL1        0.0399
     12 C          64.6731   83.6907   11.9743 C.ar    1  UNL1        0.1021
     13 N          64.4256   82.3366   11.3783 N.ar    1  UNL1       -0.2269
     14 C          63.4172   81.6302   12.2351 C.ar    1  UNL1        0.1406
     15 N          62.7925   80.2701   12.1358 N.ar    1  UNL1       -0.3374
     16 C          61.7921   79.8275   13.1620 C.ar    1  UNL1        0.0735
     17 C          61.4163   80.7451   14.2876 C.ar    1  UNL1        0.0186
     18 C          62.0410   82.1052   14.3869 C.ar    1  UNL1        0.0046
     19 C          63.0414   82.5478   13.3607 C.ar    1  UNL1        0.0369
     20 H          63.0392   79.6679   11.3970 H       1  UNL1        0.1674
     21 C          63.3058   90.7768   12.1378 C.3     1  UNL1        0.1118
     22 C          66.4318   93.2047   11.8483 C.ar    1  UNL1        0.0641
     23 C          66.8494   93.3018   13.2857 C.ar    1  UNL1        0.0158
     24 C          66.0859   92.5571   14.3405 C.ar    1  UNL1        0.0010
     25 C          64.9047   91.7155   13.9579 C.ar    1  UNL1       -0.0037
     26 C          64.4871   91.6185   12.5205 C.ar    1  UNL1       -0.0118
     27 C          65.2506   92.3631   11.4657 C.ar    1  UNL1        0.0121
     28 N          67.1954   93.9494   10.7936 N.pl3   1  UNL1       -0.2187
     29 H          67.2140   94.9336   10.8019 H       1  UNL1        0.1734
     30 C          68.6657   92.4392    8.6587 C.3     1  UNL1        0.1996
     31 S          67.9305   93.1943    9.7261 S.O2    1  UNL1        0.0558
     32 O          68.4950   92.2730   10.7666 O.2     1  UNL1       -0.1544
     33 O          67.3661   94.1156    8.6857 O.2     1  UNL1       -0.1544
@<TRIPOS>BOND
     1    30    31    1
     2    31    32    2
     3    31    33    2
     4    31    28    1
     5    28    22    1
     6    22    23   ar
     7    23    24   ar
     8    24    25   ar
     9    25    26   ar
    10    26    21    1
    11    21     1    1
    12     1     2    2
    13     1     3   am
    14     3     5    1
    15     5     6   ar
    16     6     7   ar
    17     7     8   ar
    18     8     9   ar
    19     9    11    1
    20    11    12   ar
    21    12    13   ar
    22    13    14   ar
    23    14    15   ar
    24    15    16   ar
    25    16    17   ar
    26    17    18   ar
    27    18    19   ar
    28     9    10   ar
    29    26    27   ar
    30    27    22   ar
    31    10     5   ar
    32    19    11   ar
    33    19    14    1
    34    28    29    1
    35     3     4    1
    36    15    20    1
@<TRIPOS>MOLECULE
*****
 33 36 0 0 0
SMALL
GASTEIGER

@<TRIPOS>ATOM
      1 C          62.4906   85.6526   10.7809 C.2     1  UNL1        0.2327
      2 O          62.8154   86.1858   12.1448 O.2     1  UNL1       -0.2743
      3 N          61.9041   86.5604    9.7408 N.am    1  UNL1       -0.2537
      4 H          61.6909   86.2104    8.8457 H       1  UNL1        0.1577
      5 C          61.6422   88.0014   10.0646 C.ar    1  UNL1        0.2227
      6 N          60.2569   88.5607    9.9296 N.ar    1  UNL1       -0.2120
      7 C          59.9950   90.0017   10.2534 C.ar    1  UNL1        0.1034
      8 C          61.1184   90.8835   10.7122 C.ar    1  UNL1        0.0400
      9 C          62.5038   90.3242   10.8471 C.ar    1  UNL1        0.0873
     10 N          62.7656   88.8832   10.5233 N.ar    1  UNL1       -0.2134
     11 C          63.6272   91.2060   11.3059 C.ar    1  UNL1        0.0399
     12 C          64.4157   92.1486   10.4458 C.ar    1  UNL1        0.1021
     13 N          65.4351   92.8251   11.3136 N.ar    1  UNL1       -0.2269
     14 C          65.2766   92.3006   12.7100 C.ar    1  UNL1        0.1406
     15 N          66.0054   92.6050   13.9852 N.ar    1  UNL1       -0.3374
     16 C          65.6167   91.9086   15.2556 C.ar    1  UNL1        0.0735
     17 C          64.4993   90.9079   15.2508 C.ar    1  UNL1        0.0186
     18 C          63.7706   90.6036   13.9756 C.ar    1  UNL1        0.0046
     19 C          64.1592   91.2999   12.7052 C.ar    1  UNL1        0.0369
     20 H          66.7387   93.2618   13.9884 H       1  UNL1        0.1674
     21 C          62.7525   84.2116   10.4571 C.3     1  UNL1        0.1118
     22 C          62.7790   82.6075   14.0871 C.ar    1  UNL1        0.0641
     23 C          62.8518   81.1474   13.7513 C.ar    1  UNL1        0.0158
     24 C          62.8915   80.7087   12.3174 C.ar    1  UNL1        0.0010
     25 C          62.8584   81.7300   11.2194 C.ar    1  UNL1       -0.0037
     26 C          62.7856   83.1901   11.5552 C.ar    1  UNL1       -0.0118
     27 C          62.7459   83.6288   12.9890 C.ar    1  UNL1        0.0121
     28 N          62.7394   83.0463   15.5209 N.pl3   1  UNL1       -0.2187
     29 H          62.4230   82.4260   16.2169 H       1  UNL1        0.1734
     30 C          63.6241   85.8138   16.2678 C.3     1  UNL1        0.1996
     31 S          63.1817   84.4300   15.8944 S.O2    1  UNL1        0.0558
     32 O          61.7562   84.8142   16.1597 O.2     1  UNL1       -0.1544
     33 O          64.6072   84.0459   15.6290 O.2     1  UNL1       -0.1544
@<TRIPOS>BOND
     1    30    31    1
     2    31    32    2
     3    31    33    2
     4    31    28    1
     5    28    22    1
     6    22    23   ar
     7    23    24   ar
     8    24    25   ar
     9    25    26   ar
    10    26    21    1
    11    21     1    1
    12     1     2    2
    13     1     3   am
    14     3     5    1
    15     5     6   ar
    16     6     7   ar
    17     7     8   ar
    18     8     9   ar
    19     9    11    1
    20    11    12   ar
    21    12    13   ar
    22    13    14   ar
    23    14    15   ar
    24    15    16   ar
    25    16    17   ar
    26    17    18   ar
    27    18    19   ar
    28     9    10   ar
    29    26    27   ar
    30    27    22   ar
    31    10     5   ar
    32    19    11   ar
    33    19    14    1
    34    28    29    1
    35     3     4    1
    36    15    20    1
@<TRIPOS>MOLECULE
*****
 33 36 0 0 0
SMALL
GASTEIGER

@<TRIPOS>ATOM
      1 C          61.8745   88.0887   11.6430 C.2     1  UNL1        0.2327
      2 O          60.9786   89.2515   11.9519 O.2     1  UNL1       -0.2743
      3 N          63.1468   87.8967   12.4137 N.am    1  UNL1       -0.2537
      4 H          63.7348   87.1335   12.2109 H       1  UNL1        0.1577
      5 C          63.5235   88.8674   13.4935 C.ar    1  UNL1        0.2227
      6 N          63.0874   88.6225   14.9076 N.ar    1  UNL1       -0.2120
      7 C          63.4640   89.5932   15.9874 C.ar    1  UNL1        0.1034
      8 C          64.2768   90.8088   15.6530 C.ar    1  UNL1        0.0400
      9 C          64.7129   91.0536   14.2387 C.ar    1  UNL1        0.0873
     10 N          64.3363   90.0829   13.1591 N.ar    1  UNL1       -0.2134
     11 C          65.5257   92.2692   13.9044 C.ar    1  UNL1        0.0399
     12 C          66.3432   93.0759   14.8691 C.ar    1  UNL1        0.1021
     13 N          66.9864   94.1967   14.1075 N.ar    1  UNL1       -0.2269
     14 C          66.5664   94.0827   12.6720 C.ar    1  UNL1        0.1406
     15 N          66.8893   94.9097   11.4630 N.ar    1  UNL1       -0.3374
     16 C          66.3095   94.5454   10.1285 C.ar    1  UNL1        0.0735
     17 C          65.4067   93.3541   10.0029 C.ar    1  UNL1        0.0186
     18 C          65.0837   92.5271   11.2119 C.ar    1  UNL1        0.0046
     19 C          65.6636   92.8914   12.5465 C.ar    1  UNL1        0.0369
     20 H          67.4818   95.6916   11.5454 H       1  UNL1        0.1674
     21 C          61.4978   87.1180   10.5632 C.3     1  UNL1        0.1118
     22 C          63.0776   83.5881   11.4546 C.ar    1  UNL1        0.0641
     23 C          63.7304   83.2326   10.1517 C.ar    1  UNL1        0.0158
     24 C          63.6390   84.1722    8.9861 C.ar    1  UNL1        0.0010
     25 C          62.8948   85.4673    9.1232 C.ar    1  UNL1       -0.0037
     26 C          62.2420   85.8228   10.4260 C.ar    1  UNL1       -0.0118
     27 C          62.3334   84.8832   11.5917 C.ar    1  UNL1        0.0121
     28 N          63.1689   82.6485   12.6203 N.pl3   1  UNL1       -0.2187
     29 H          63.0495   81.6810   12.4832 H       1  UNL1        0.1734
     30 C          63.7158   83.7177   15.3694 C.3     1  UNL1        0.1996
     31 S          63.4423   83.1831   13.9948 S.O2    1  UNL1        0.0558
     32 O          62.1039   82.6859   14.4544 O.2     1  UNL1       -0.1544
     33 O          64.7808   83.6803   13.5352 O.2     1  UNL1       -0.1544
@<TRIPOS>BOND
     1    30    31    1
     2    31    32    2
     3    31    33    2
     4    31    28    1
     5    28    22    1
     6    22    23   ar
     7    23    24   ar
     8    24    25   ar
     9    25    26   ar
    10    26    21    1
    11    21     1    1
    12     1     2    2
    13     1     3   am
    14     3     5    1
    15     5     6   ar
    16     6     7   ar
    17     7     8   ar
    18     8     9   ar
    19     9    11    1
    20    11    12   ar
    21    12    13   ar
    22    13    14   ar
    23    14    15   ar
    24    15    16   ar
    25    16    17   ar
    26    17    18   ar
    27    18    19   ar
    28     9    10   ar
    29    26    27   ar
    30    27    22   ar
    31    10     5   ar
    32    19    11   ar
    33    19    14    1
    34    28    29    1
    35     3     4    1
    36    15    20    1
