@<TRIPOS>MOLECULE
*****
 36 40 0 0 0
SMALL
GASTEIGER

@<TRIPOS>ATOM
      1 C          64.1576   91.3650   13.1066 C.3     1  UNL1        0.1909
      2 C          63.8913   91.4071   11.6311 C.3     1  UNL1        0.1783
      3 O          64.7455   92.4872   11.0364 O.3     1  UNL1       -0.3267
      4 C          65.5397   93.1128   12.1445 C.3     1  UNL1        0.2296
      5 O          65.1764   92.4193   13.4240 O.3     1  UNL1       -0.3255
      6 C          66.0933   93.9748   11.0489 C.ar    1  UNL1        0.0409
      7 C          65.5730   95.3684   10.8558 C.ar    1  UNL1        0.0022
      8 C          66.1266   96.2304    9.7601 C.ar    1  UNL1        0.0113
      9 C          67.2003   95.6989    8.8576 C.ar    1  UNL1        0.0585
     10 CL         67.7539   96.5609    7.7619 Cl      1  UNL1       -0.0822
     11 C          67.7206   94.3052    9.0508 C.ar    1  UNL1        0.0226
     12 C          67.1670   93.4433   10.1464 C.ar    1  UNL1        0.0591
     13 CL         67.6872   92.0497   10.3396 Cl      1  UNL1       -0.0824
     14 C          63.5174   90.4325   14.0919 C.3     1  UNL1        0.2374
     15 O          64.3035   89.2895   14.6626 O.3     1  UNL1       -0.4727
     16 C          63.6604   85.1168   13.1054 C.ar    1  UNL1        0.0481
     17 C          64.3818   85.3302   14.4030 C.ar    1  UNL1        0.0176
     18 C          64.5962   86.7211   14.9221 C.ar    1  UNL1        0.0382
     19 C          64.0891   87.8986   14.1435 C.ar    1  UNL1        0.1388
     20 C          63.3677   87.6853   12.8459 C.ar    1  UNL1        0.0382
     21 C          63.1533   86.2944   12.3268 C.ar    1  UNL1        0.0176
     22 C          62.9816   79.2619    9.5685 C.3     1  UNL1        0.0948
     23 C          62.8030   79.5532   11.0290 C.2     1  UNL1        0.2262
     24 O          62.4100   78.4536   11.9705 O.2     1  UNL1       -0.2749
     25 N          63.0173   80.9441   11.5481 N.am    1  UNL1       -0.2760
     26 C          63.4103   82.0437   10.6067 C.3     1  UNL1        0.1148
     27 C          63.6246   83.4346   11.1257 C.3     1  UNL1        0.1123
     28 N          63.4460   83.7259   12.5863 N.pl3   1  UNL1       -0.3041
     29 C          63.0531   82.6263   13.5277 C.3     1  UNL1        0.1123
     30 C          62.8387   81.2354   13.0087 C.3     1  UNL1        0.1148
     31 C          66.4497   93.9186   13.0237 C.3     1  UNL1        0.1682
     32 N          67.2815   93.2356   14.0685 N.ar    1  UNL1       -0.3025
     33 C          67.5506   93.7454   15.4532 C.ar    1  UNL1        0.0982
     34 C          68.4256   92.7478   16.1525 C.ar    1  UNL1        0.1193
     35 N          68.6974   91.6215   15.1999 N.ar    1  UNL1       -0.2223
     36 C          67.9902   91.9229   13.9119 C.ar    1  UNL1        0.1788
@<TRIPOS>BOND
     1    22    23    1
     2    23    24    2
     3    23    25   am
     4    25    26    1
     5    26    27    1
     6    27    28    1
     7    28    16    1
     8    16    17   ar
     9    17    18   ar
    10    18    19   ar
    11    19    15    1
    12    15    14    1
    13     1    14    1
    14     1     2    1
    15     2     3    1
    16     3     4    1
    17     4    31    1
    18    31    32    1
    19    32    33   ar
    20    33    34   ar
    21    34    35   ar
    22    35    36   ar
    23     4     6    1
    24     6     7   ar
    25     7     8   ar
    26     8     9   ar
    27     9    10    1
    28     9    11   ar
    29    11    12   ar
    30    12    13    1
    31     4     5    1
    32    19    20   ar
    33    20    21   ar
    34    28    29    1
    35    29    30    1
    36    30    25    1
    37    21    16   ar
    38     5     1    1
    39    36    32   ar
    40    12     6   ar
@<TRIPOS>MOLECULE
*****
 36 40 0 0 0
SMALL
GASTEIGER

@<TRIPOS>ATOM
      1 C          63.3302   89.6736   15.8149 C.3     1  UNL1        0.1909
      2 C          63.8820   91.0568   15.9944 C.3     1  UNL1        0.1783
      3 O          64.3730   91.5367   14.6607 O.3     1  UNL1       -0.3267
      4 C          64.1246   90.4500   13.6570 C.3     1  UNL1        0.2296
      5 O          63.4800   89.2986   14.3703 O.3     1  UNL1       -0.3255
      6 C          64.7442   91.4165   12.6917 C.ar    1  UNL1        0.0409
      7 C          63.9932   91.8338   11.4621 C.ar    1  UNL1        0.0022
      8 C          64.6129   92.8003   10.4967 C.ar    1  UNL1        0.0113
      9 C          65.9835   93.3495   10.7609 C.ar    1  UNL1        0.0585
     10 CL         66.6031   94.3160    9.7956 Cl      1  UNL1       -0.0822
     11 C          66.7345   92.9322   11.9906 C.ar    1  UNL1        0.0226
     12 C          66.1149   91.9657   12.9559 C.ar    1  UNL1        0.0591
     13 CL         66.8658   91.5484   14.1855 Cl      1  UNL1       -0.0824
     14 C          62.7332   88.8160   16.8911 C.3     1  UNL1        0.2374
     15 O          63.3886   87.5204   17.2676 O.3     1  UNL1       -0.4727
     16 C          63.1292   83.9805   14.5013 C.ar    1  UNL1        0.0481
     17 C          62.1125   84.1578   15.5899 C.ar    1  UNL1        0.0176
     18 C          62.1990   85.3377   16.5119 C.ar    1  UNL1        0.0382
     19 C          63.3021   86.3404   16.3455 C.ar    1  UNL1        0.1388
     20 C          64.3187   86.1632   15.2569 C.ar    1  UNL1        0.0382
     21 C          64.2322   84.9832   14.3348 C.ar    1  UNL1        0.0176
     22 C          62.9638   79.4484    9.3358 C.3     1  UNL1        0.0948
     23 C          62.7833   79.2607   10.8129 C.2     1  UNL1        0.2262
     24 O          62.5163   77.8931   11.3680 O.2     1  UNL1       -0.2749
     25 N          62.8697   80.4407   11.7350 N.am    1  UNL1       -0.2760
     26 C          63.1367   81.8083   11.1799 C.3     1  UNL1        0.1148
     27 C          63.2232   82.9883   12.1020 C.3     1  UNL1        0.1123
     28 N          63.0427   82.8006   13.5792 N.pl3   1  UNL1       -0.3041
     29 C          62.7757   81.4329   14.1343 C.3     1  UNL1        0.1123
     30 C          62.6892   80.2530   13.2122 C.3     1  UNL1        0.1148
     31 C          64.0057   89.5654   12.4514 C.3     1  UNL1        0.1682
     32 N          62.6625   89.0458   12.0319 N.ar    1  UNL1       -0.3025
     33 C          61.3821   89.8268   12.0118 C.ar    1  UNL1        0.0982
     34 C          60.2923   88.9178   11.5263 C.ar    1  UNL1        0.1193
     35 N          60.8991   87.5749   11.2462 N.ar    1  UNL1       -0.2223
     36 C          62.3641   87.6541   11.5587 C.ar    1  UNL1        0.1788
@<TRIPOS>BOND
     1    22    23    1
     2    23    24    2
     3    23    25   am
     4    25    26    1
     5    26    27    1
     6    27    28    1
     7    28    16    1
     8    16    17   ar
     9    17    18   ar
    10    18    19   ar
    11    19    15    1
    12    15    14    1
    13     1    14    1
    14     1     2    1
    15     2     3    1
    16     3     4    1
    17     4    31    1
    18    31    32    1
    19    32    33   ar
    20    33    34   ar
    21    34    35   ar
    22    35    36   ar
    23     4     6    1
    24     6     7   ar
    25     7     8   ar
    26     8     9   ar
    27     9    10    1
    28     9    11   ar
    29    11    12   ar
    30    12    13    1
    31     4     5    1
    32    19    20   ar
    33    20    21   ar
    34    28    29    1
    35    29    30    1
    36    30    25    1
    37    21    16   ar
    38     5     1    1
    39    36    32   ar
    40    12     6   ar
@<TRIPOS>MOLECULE
*****
 36 40 0 0 0
SMALL
GASTEIGER

@<TRIPOS>ATOM
      1 C          65.8729   92.4985   14.4110 C.3     1  UNL1        0.1909
      2 C          66.4927   93.8639   14.3718 C.3     1  UNL1        0.1783
      3 O          66.5934   94.2862   12.9359 O.3     1  UNL1       -0.3267
      4 C          66.0358   93.1817   12.0878 C.3     1  UNL1        0.2296
      5 O          65.5905   92.0768   12.9994 O.3     1  UNL1       -0.3255
      6 C          66.3795   94.0956   10.9492 C.ar    1  UNL1        0.0409
      7 C          65.6876   95.4198   10.8151 C.ar    1  UNL1        0.0022
      8 C          66.0314   96.3337    9.6764 C.ar    1  UNL1        0.0113
      9 C          67.0670   95.9235    8.6718 C.ar    1  UNL1        0.0585
     10 CL         67.4107   96.8375    7.5331 Cl      1  UNL1       -0.0822
     11 C          67.7589   94.5993    8.8059 C.ar    1  UNL1        0.0226
     12 C          67.4152   93.6855    9.9445 C.ar    1  UNL1        0.0591
     13 CL         68.1070   92.3613   10.0786 Cl      1  UNL1       -0.0824
     14 C          65.5858   91.6956   15.6451 C.3     1  UNL1        0.2374
     15 O          64.2460   91.0449   15.8217 O.3     1  UNL1       -0.4727
     16 C          63.6979   86.7027   14.7755 C.ar    1  UNL1        0.0481
     17 C          64.2593   87.6536   13.7604 C.ar    1  UNL1        0.0176
     18 C          64.4420   89.1010   14.1092 C.ar    1  UNL1        0.0382
     19 C          64.0633   89.5975   15.4730 C.ar    1  UNL1        0.1388
     20 C          63.5018   88.6465   16.4880 C.ar    1  UNL1        0.0382
     21 C          63.3191   87.1991   16.1393 C.ar    1  UNL1        0.0176
     22 C          62.7644   80.5058   11.9512 C.3     1  UNL1        0.0948
     23 C          62.9671   80.9130   13.3805 C.2     1  UNL1        0.2262
     24 O          62.9870   79.8729   14.4611 O.2     1  UNL1       -0.2749
     25 N          63.1498   82.3604   13.7292 N.am    1  UNL1       -0.2760
     26 C          63.1298   83.4006   12.6487 C.3     1  UNL1        0.1148
     27 C          63.3125   84.8480   12.9974 C.3     1  UNL1        0.1123
     28 N          63.5152   85.2553   14.4267 N.pl3   1  UNL1       -0.3041
     29 C          63.5351   84.2151   15.5073 C.3     1  UNL1        0.1123
     30 C          63.3524   82.7677   15.1586 C.3     1  UNL1        0.1148
     31 C          65.5501   92.2683   11.0016 C.3     1  UNL1        0.1682
     32 N          64.1772   91.6695   11.0832 N.ar    1  UNL1       -0.3025
     33 C          63.3046   91.3031    9.9195 C.ar    1  UNL1        0.0982
     34 C          62.0240   90.7392   10.4599 C.ar    1  UNL1        0.1193
     35 N          62.1052   90.7570   11.9576 N.ar    1  UNL1       -0.2223
     36 C          63.4360   91.3320   12.3428 C.ar    1  UNL1        0.1788
@<TRIPOS>BOND
     1    22    23    1
     2    23    24    2
     3    23    25   am
     4    25    26    1
     5    26    27    1
     6    27    28    1
     7    28    16    1
     8    16    17   ar
     9    17    18   ar
    10    18    19   ar
    11    19    15    1
    12    15    14    1
    13     1    14    1
    14     1     2    1
    15     2     3    1
    16     3     4    1
    17     4    31    1
    18    31    32    1
    19    32    33   ar
    20    33    34   ar
    21    34    35   ar
    22    35    36   ar
    23     4     6    1
    24     6     7   ar
    25     7     8   ar
    26     8     9   ar
    27     9    10    1
    28     9    11   ar
    29    11    12   ar
    30    12    13    1
    31     4     5    1
    32    19    20   ar
    33    20    21   ar
    34    28    29    1
    35    29    30    1
    36    30    25    1
    37    21    16   ar
    38     5     1    1
    39    36    32   ar
    40    12     6   ar
@<TRIPOS>MOLECULE
*****
 36 40 0 0 0
SMALL
GASTEIGER

@<TRIPOS>ATOM
      1 C          59.4812   88.0528    7.5320 C.3     1  UNL1        0.1909
      2 C          59.2100   86.5833    7.6623 C.3     1  UNL1        0.1783
      3 O          60.2529   85.9979    8.5676 O.3     1  UNL1       -0.3267
      4 C          61.1687   87.1056    8.9968 C.3     1  UNL1        0.2296
      5 O          60.6918   88.3757    8.3568 O.3     1  UNL1       -0.3255
      6 C          61.8676   86.0198    9.7599 C.ar    1  UNL1        0.0409
      7 C          61.6289   85.8652   11.2327 C.ar    1  UNL1        0.0022
      8 C          62.3279   84.7793   11.9959 C.ar    1  UNL1        0.0113
      9 C          63.2655   83.8481   11.2862 C.ar    1  UNL1        0.0585
     10 CL         63.9645   82.7622   12.0493 Cl      1  UNL1       -0.0822
     11 C          63.5043   84.0027    9.8133 C.ar    1  UNL1        0.0226
     12 C          62.8053   85.0885    9.0503 C.ar    1  UNL1        0.0591
     13 CL         63.0440   85.2432    7.5775 Cl      1  UNL1       -0.0824
     14 C          58.6821   89.0282    6.7195 C.3     1  UNL1        0.2374
     15 O          59.0763   90.4750    6.6842 O.3     1  UNL1       -0.4727
     16 C          60.9694   92.2018    2.9850 C.ar    1  UNL1        0.0481
     17 C          59.5607   92.5681    3.3474 C.ar    1  UNL1        0.0176
     18 C          58.9297   91.9925    4.5805 C.ar    1  UNL1        0.0382
     19 C          59.7073   91.0506    5.4511 C.ar    1  UNL1        0.1388
     20 C          61.1159   90.6843    5.0887 C.ar    1  UNL1        0.0382
     21 C          61.7470   91.2598    3.8556 C.ar    1  UNL1        0.0176
     22 C          62.8609   94.2788   -3.2886 C.3     1  UNL1        0.0948
     23 C          63.4935   94.5041   -1.9474 C.2     1  UNL1        0.2262
     24 O          64.7572   95.3049   -1.8392 O.2     1  UNL1       -0.2749
     25 N          62.8625   93.9285   -0.7143 N.am    1  UNL1       -0.2760
     26 C          61.5988   93.1277   -0.8224 C.3     1  UNL1        0.1148
     27 C          60.9678   92.5521    0.4106 C.3     1  UNL1        0.1123
     28 N          61.6004   92.7773    1.7519 N.pl3   1  UNL1       -0.3041
     29 C          62.8641   93.5782    1.8600 C.3     1  UNL1        0.1123
     30 C          63.4951   94.1538    0.6269 C.3     1  UNL1        0.1148
     31 C          62.2307   87.9864    9.5856 C.3     1  UNL1        0.1682
     32 N          61.9487   88.7698   10.8333 N.ar    1  UNL1       -0.3025
     33 C          62.9748   89.3478   11.7622 C.ar    1  UNL1        0.0982
     34 C          62.2513   90.0479   12.8741 C.ar    1  UNL1        0.1193
     35 N          60.7781   89.9025   12.6325 N.ar    1  UNL1       -0.2223
     36 C          60.5911   89.1126   11.3712 C.ar    1  UNL1        0.1788
@<TRIPOS>BOND
     1    22    23    1
     2    23    24    2
     3    23    25   am
     4    25    26    1
     5    26    27    1
     6    27    28    1
     7    28    16    1
     8    16    17   ar
     9    17    18   ar
    10    18    19   ar
    11    19    15    1
    12    15    14    1
    13     1    14    1
    14     1     2    1
    15     2     3    1
    16     3     4    1
    17     4    31    1
    18    31    32    1
    19    32    33   ar
    20    33    34   ar
    21    34    35   ar
    22    35    36   ar
    23     4     6    1
    24     6     7   ar
    25     7     8   ar
    26     8     9   ar
    27     9    10    1
    28     9    11   ar
    29    11    12   ar
    30    12    13    1
    31     4     5    1
    32    19    20   ar
    33    20    21   ar
    34    28    29    1
    35    29    30    1
    36    30    25    1
    37    21    16   ar
    38     5     1    1
    39    36    32   ar
    40    12     6   ar
@<TRIPOS>MOLECULE
*****
 36 40 0 0 0
SMALL
GASTEIGER

@<TRIPOS>ATOM
      1 C          59.5191   87.9906    7.5482 C.3     1  UNL1        0.1909
      2 C          59.2526   86.5208    7.6851 C.3     1  UNL1        0.1783
      3 O          60.2976   85.9428    8.5928 O.3     1  UNL1       -0.3267
      4 C          61.2100   87.0554    9.0169 C.3     1  UNL1        0.2296
      5 O          60.7288   88.3210    8.3713 O.3     1  UNL1       -0.3255
      6 C          61.9125   85.9752    9.7846 C.ar    1  UNL1        0.0409
      7 C          61.6655   85.8189   11.2559 C.ar    1  UNL1        0.0022
      8 C          62.3681   84.7386   12.0237 C.ar    1  UNL1        0.0113
      9 C          63.3176   83.8148   11.3203 C.ar    1  UNL1        0.0585
     10 CL         64.0202   82.7345   12.0881 Cl      1  UNL1       -0.0822
     11 C          63.5646   83.9711    9.8490 C.ar    1  UNL1        0.0226
     12 C          62.8621   85.0513    9.0812 C.ar    1  UNL1        0.0591
     13 CL         63.1090   85.2076    7.6100 Cl      1  UNL1       -0.0824
     14 C          58.7167   88.9599    6.7316 C.3     1  UNL1        0.2374
     15 O          59.0757   90.4162    6.7298 O.3     1  UNL1       -0.4727
     16 C          60.8325   92.2960    3.0379 C.ar    1  UNL1        0.0481
     17 C          59.4111   92.5828    3.4218 C.ar    1  UNL1        0.0176
     18 C          58.8255   91.9562    4.6524 C.ar    1  UNL1        0.0382
     19 C          59.6613   91.0428    5.4992 C.ar    1  UNL1        0.1388
     20 C          61.0827   90.7561    5.1154 C.ar    1  UNL1        0.0382
     21 C          61.6683   91.3827    3.8848 C.ar    1  UNL1        0.0176
     22 C          64.5760   95.3370   -1.8598 C.3     1  UNL1        0.0948
     23 C          63.1748   94.8024   -1.8846 C.2     1  UNL1        0.2262
     24 O          62.3591   94.8944   -3.1400 O.2     1  UNL1       -0.2749
     25 N          62.5892   94.1758   -0.6540 N.am    1  UNL1       -0.2760
     26 C          63.4049   94.0838    0.6015 C.3     1  UNL1        0.1148
     27 C          62.8193   93.4572    1.8321 C.3     1  UNL1        0.1123
     28 N          61.4180   92.9226    1.8073 N.pl3   1  UNL1       -0.3041
     29 C          60.6024   93.0146    0.5519 C.3     1  UNL1        0.1123
     30 C          61.1880   93.6412   -0.6788 C.3     1  UNL1        0.1148
     31 C          62.2692   87.9422    9.6015 C.3     1  UNL1        0.1682
     32 N          61.9831   88.7345   10.8426 N.ar    1  UNL1       -0.3025
     33 C          63.0060   89.3076   11.7780 C.ar    1  UNL1        0.0982
     34 C          62.2790   90.0200   12.8798 C.ar    1  UNL1        0.1193
     35 N          60.8067   89.8871   12.6253 N.ar    1  UNL1       -0.2223
     36 C          60.6239   89.0926   11.3662 C.ar    1  UNL1        0.1788
@<TRIPOS>BOND
     1    22    23    1
     2    23    24    2
     3    23    25   am
     4    25    26    1
     5    26    27    1
     6    27    28    1
     7    28    16    1
     8    16    17   ar
     9    17    18   ar
    10    18    19   ar
    11    19    15    1
    12    15    14    1
    13     1    14    1
    14     1     2    1
    15     2     3    1
    16     3     4    1
    17     4    31    1
    18    31    32    1
    19    32    33   ar
    20    33    34   ar
    21    34    35   ar
    22    35    36   ar
    23     4     6    1
    24     6     7   ar
    25     7     8   ar
    26     8     9   ar
    27     9    10    1
    28     9    11   ar
    29    11    12   ar
    30    12    13    1
    31     4     5    1
    32    19    20   ar
    33    20    21   ar
    34    28    29    1
    35    29    30    1
    36    30    25    1
    37    21    16   ar
    38     5     1    1
    39    36    32   ar
    40    12     6   ar
@<TRIPOS>MOLECULE
*****
 36 40 0 0 0
SMALL
GASTEIGER

@<TRIPOS>ATOM
      1 C          65.8584   92.2936   15.1153 C.3     1  UNL1        0.1909
      2 C          67.3104   92.3296   14.7405 C.3     1  UNL1        0.1783
      3 O          67.4027   92.6092   13.2697 O.3     1  UNL1       -0.3267
      4 C          66.0078   92.7461   12.7355 C.3     1  UNL1        0.2296
      5 O          65.0533   92.5510   13.8761 O.3     1  UNL1       -0.3255
      6 C          66.7009   92.9800   11.4260 C.ar    1  UNL1        0.0409
      7 C          67.3712   91.8399   10.7181 C.ar    1  UNL1        0.0022
      8 C          68.0643   92.0738    9.4085 C.ar    1  UNL1        0.0113
      9 C          68.0872   93.4477    8.8069 C.ar    1  UNL1        0.0585
     10 CL         68.7803   93.6815    7.4974 Cl      1  UNL1       -0.0822
     11 C          67.4168   94.5877    9.5148 C.ar    1  UNL1        0.0226
     12 C          66.7238   94.3538   10.8243 C.ar    1  UNL1        0.0591
     13 CL         66.0535   95.4938   11.5322 Cl      1  UNL1       -0.0824
     14 C          65.3081   92.0440   16.4882 C.3     1  UNL1        0.2374
     15 O          64.0059   91.3183   16.6537 O.3     1  UNL1       -0.4727
     16 C          63.6108   87.0585   15.2582 C.ar    1  UNL1        0.0481
     17 C          62.9705   87.4887   16.5445 C.ar    1  UNL1        0.0176
     18 C          63.1022   88.9086   17.0097 C.ar    1  UNL1        0.0382
     19 C          63.8742   89.8984   16.1886 C.ar    1  UNL1        0.1388
     20 C          64.5145   89.4681   14.9022 C.ar    1  UNL1        0.0382
     21 C          64.3828   88.0482   14.4370 C.ar    1  UNL1        0.0176
     22 C          62.3663   80.3740   14.2490 C.3     1  UNL1        0.0948
     23 C          63.0840   81.3787   13.3974 C.2     1  UNL1        0.2262
     24 O          63.6701   80.9635   12.0805 O.2     1  UNL1       -0.2749
     25 N          63.2157   82.7986   13.8626 N.am    1  UNL1       -0.2760
     26 C          62.6296   83.2139   15.1794 C.3     1  UNL1        0.1148
     27 C          62.7613   84.6338   15.6446 C.3     1  UNL1        0.1123
     28 N          63.4791   85.6385   14.7930 N.pl3   1  UNL1       -0.3041
     29 C          64.0652   85.2233   13.4761 C.3     1  UNL1        0.1123
     30 C          63.9335   83.8033   13.0109 C.3     1  UNL1        0.1148
     31 C          64.7577   92.9319   11.9275 C.3     1  UNL1        0.1682
     32 N          63.9693   91.7368   11.4799 N.ar    1  UNL1       -0.3025
     33 C          63.4671   90.6316   12.3609 C.ar    1  UNL1        0.0982
     34 C          62.7322   89.6489   11.4982 C.ar    1  UNL1        0.1193
     35 N          62.7802   90.1468   10.0841 N.ar    1  UNL1       -0.2223
     36 C          63.5448   91.4372   10.0728 C.ar    1  UNL1        0.1788
@<TRIPOS>BOND
     1    22    23    1
     2    23    24    2
     3    23    25   am
     4    25    26    1
     5    26    27    1
     6    27    28    1
     7    28    16    1
     8    16    17   ar
     9    17    18   ar
    10    18    19   ar
    11    19    15    1
    12    15    14    1
    13     1    14    1
    14     1     2    1
    15     2     3    1
    16     3     4    1
    17     4    31    1
    18    31    32    1
    19    32    33   ar
    20    33    34   ar
    21    34    35   ar
    22    35    36   ar
    23     4     6    1
    24     6     7   ar
    25     7     8   ar
    26     8     9   ar
    27     9    10    1
    28     9    11   ar
    29    11    12   ar
    30    12    13    1
    31     4     5    1
    32    19    20   ar
    33    20    21   ar
    34    28    29    1
    35    29    30    1
    36    30    25    1
    37    21    16   ar
    38     5     1    1
    39    36    32   ar
    40    12     6   ar
@<TRIPOS>MOLECULE
*****
 36 40 0 0 0
SMALL
GASTEIGER

@<TRIPOS>ATOM
      1 C          63.9318   91.6244   10.9096 C.3     1  UNL1        0.1909
      2 C          63.7803   91.4043   12.3856 C.3     1  UNL1        0.1783
      3 O          65.0501   91.8433   13.0525 O.3     1  UNL1       -0.3267
      4 C          65.9865   92.3347   11.9887 C.3     1  UNL1        0.2296
      5 O          65.2953   92.1995   10.6642 O.3     1  UNL1       -0.3255
      6 C          66.9139   92.5836   13.1409 C.ar    1  UNL1        0.0409
      7 C          66.4663   93.4320   14.2942 C.ar    1  UNL1        0.0022
      8 C          67.3937   93.6809   15.4466 C.ar    1  UNL1        0.0113
      9 C          68.7687   93.0815   15.4457 C.ar    1  UNL1        0.0585
     10 CL         69.6962   93.3304   16.5980 Cl      1  UNL1       -0.0822
     11 C          69.2163   92.2331   14.2924 C.ar    1  UNL1        0.0226
     12 C          68.2889   91.9842   13.1401 C.ar    1  UNL1        0.0591
     13 CL         68.7365   91.1358   11.9869 Cl      1  UNL1       -0.0824
     14 C          62.9008   91.3225    9.8628 C.3     1  UNL1        0.2374
     15 O          61.6998   90.4935   10.2099 O.3     1  UNL1       -0.4727
     16 C          62.2117   86.1946   11.4377 C.ar    1  UNL1        0.0481
     17 C          62.9295   87.2788   12.1855 C.ar    1  UNL1        0.0176
     18 C          62.7589   88.7117   11.7763 C.ar    1  UNL1        0.0382
     19 C          61.8704   89.0606   10.6192 C.ar    1  UNL1        0.1388
     20 C          61.1526   87.9764    9.8714 C.ar    1  UNL1        0.0382
     21 C          61.3232   86.5435   10.2806 C.ar    1  UNL1        0.0176
     22 C          62.8750   79.3792   12.0377 C.3     1  UNL1        0.0948
     23 C          62.8942   80.4628   13.0748 C.2     1  UNL1        0.2262
     24 O          63.0839   80.1134   14.5211 O.2     1  UNL1       -0.2749
     25 N          62.7235   81.8957   12.6655 N.am    1  UNL1       -0.2760
     26 C          62.5338   82.2452   11.2192 C.3     1  UNL1        0.1148
     27 C          62.3632   83.6781   10.8099 C.3     1  UNL1        0.1123
     28 N          62.3823   84.7617   11.8470 N.pl3   1  UNL1       -0.3041
     29 C          62.5721   84.4123   13.2933 C.3     1  UNL1        0.1123
     30 C          62.7427   82.9793   13.7026 C.3     1  UNL1        0.1148
     31 C          67.1167   92.8782   11.1656 C.3     1  UNL1        0.1682
     32 N          66.9917   94.2244   10.5159 N.ar    1  UNL1       -0.3025
     33 C          66.2409   95.4016   11.0640 C.ar    1  UNL1        0.0982
     34 C          66.3808   96.5345   10.0909 C.ar    1  UNL1        0.1193
     35 N          67.2182   96.0575    8.9415 N.ar    1  UNL1       -0.2223
     36 C          67.5957   94.6298    9.2041 C.ar    1  UNL1        0.1788
@<TRIPOS>BOND
     1    22    23    1
     2    23    24    2
     3    23    25   am
     4    25    26    1
     5    26    27    1
     6    27    28    1
     7    28    16    1
     8    16    17   ar
     9    17    18   ar
    10    18    19   ar
    11    19    15    1
    12    15    14    1
    13     1    14    1
    14     1     2    1
    15     2     3    1
    16     3     4    1
    17     4    31    1
    18    31    32    1
    19    32    33   ar
    20    33    34   ar
    21    34    35   ar
    22    35    36   ar
    23     4     6    1
    24     6     7   ar
    25     7     8   ar
    26     8     9   ar
    27     9    10    1
    28     9    11   ar
    29    11    12   ar
    30    12    13    1
    31     4     5    1
    32    19    20   ar
    33    20    21   ar
    34    28    29    1
    35    29    30    1
    36    30    25    1
    37    21    16   ar
    38     5     1    1
    39    36    32   ar
    40    12     6   ar
@<TRIPOS>MOLECULE
*****
 36 40 0 0 0
SMALL
GASTEIGER

@<TRIPOS>ATOM
      1 C          60.8531   87.6154    9.7820 C.3     1  UNL1        0.1909
      2 C          60.5928   87.2372   11.2100 C.3     1  UNL1        0.1783
      3 O          61.3890   86.0032   11.5154 O.3     1  UNL1       -0.3267
      4 C          62.1415   85.6187   10.2761 C.3     1  UNL1        0.2296
      5 O          61.8104   86.6150    9.2047 O.3     1  UNL1       -0.3255
      6 C          62.6523   84.4928   11.1253 C.ar    1  UNL1        0.0409
      7 C          62.4950   83.0742   10.6639 C.ar    1  UNL1        0.0022
      8 C          63.0058   81.9482   11.5132 C.ar    1  UNL1        0.0113
      9 C          63.6739   82.2408   12.8239 C.ar    1  UNL1        0.0585
     10 CL         64.1848   81.1149   13.6732 Cl      1  UNL1       -0.0822
     11 C          63.8312   83.6595   13.2854 C.ar    1  UNL1        0.0226
     12 C          63.3204   84.7854   12.4361 C.ar    1  UNL1        0.0591
     13 CL         63.4777   86.2039   12.8975 Cl      1  UNL1       -0.0824
     14 C          60.2604   88.7879    9.0583 C.3     1  UNL1        0.2374
     15 O          60.3385   90.1591    9.6614 O.3     1  UNL1       -0.4727
     16 C          63.8715   91.3011   12.2037 C.ar    1  UNL1        0.0481
     17 C          62.6882   90.6212   12.8261 C.ar    1  UNL1        0.0176
     18 C          61.5105   90.2405   11.9787 C.ar    1  UNL1        0.0382
     19 C          61.5161   90.5398   10.5089 C.ar    1  UNL1        0.1388
     20 C          62.6994   91.2197    9.8865 C.ar    1  UNL1        0.0382
     21 C          63.8771   91.6004   10.7339 C.ar    1  UNL1        0.0176
     22 C          68.9949   91.9496   16.7403 C.3     1  UNL1        0.0948
     23 C          68.5823   92.8239   15.5934 C.2     1  UNL1        0.2262
     24 O          69.3474   94.0788   15.2940 O.2     1  UNL1       -0.2749
     25 N          67.4046   92.4432   14.7460 N.am    1  UNL1       -0.2760
     26 C          66.6395   91.1882   15.0454 C.3     1  UNL1        0.1148
     27 C          65.4618   90.8076   14.1980 C.3     1  UNL1        0.1123
     28 N          65.0492   91.6818   13.0511 N.pl3   1  UNL1       -0.3041
     29 C          65.8143   92.9368   12.7517 C.3     1  UNL1        0.1123
     30 C          66.9920   93.3175   13.5991 C.3     1  UNL1        0.1148
     31 C          63.0008   84.9988    9.2142 C.3     1  UNL1        0.1682
     32 N          62.4572   84.8008    7.8303 N.ar    1  UNL1       -0.3025
     33 C          63.2677   84.5727    6.5890 C.ar    1  UNL1        0.0982
     34 C          62.3191   84.4271    5.4362 C.ar    1  UNL1        0.1193
     35 N          60.9223   84.5653    5.9651 N.ar    1  UNL1       -0.2223
     36 C          61.0076   84.7963    7.4447 C.ar    1  UNL1        0.1788
@<TRIPOS>BOND
     1    22    23    1
     2    23    24    2
     3    23    25   am
     4    25    26    1
     5    26    27    1
     6    27    28    1
     7    28    16    1
     8    16    17   ar
     9    17    18   ar
    10    18    19   ar
    11    19    15    1
    12    15    14    1
    13     1    14    1
    14     1     2    1
    15     2     3    1
    16     3     4    1
    17     4    31    1
    18    31    32    1
    19    32    33   ar
    20    33    34   ar
    21    34    35   ar
    22    35    36   ar
    23     4     6    1
    24     6     7   ar
    25     7     8   ar
    26     8     9   ar
    27     9    10    1
    28     9    11   ar
    29    11    12   ar
    30    12    13    1
    31     4     5    1
    32    19    20   ar
    33    20    21   ar
    34    28    29    1
    35    29    30    1
    36    30    25    1
    37    21    16   ar
    38     5     1    1
    39    36    32   ar
    40    12     6   ar
@<TRIPOS>MOLECULE
*****
 36 40 0 0 0
SMALL
GASTEIGER

@<TRIPOS>ATOM
      1 C          59.5112   87.9818    7.5110 C.3     1  UNL1        0.1909
      2 C          59.2303   86.5148    7.6482 C.3     1  UNL1        0.1783
      3 O          60.3449   85.9017    8.4430 O.3     1  UNL1       -0.3267
      4 C          61.3148   86.9898    8.7970 C.3     1  UNL1        0.2296
      5 O          60.7995   88.2755    8.2210 O.3     1  UNL1       -0.3255
      6 C          62.0656   85.8834    9.4766 C.ar    1  UNL1        0.0409
      7 C          63.0532   85.0614    8.7025 C.ar    1  UNL1        0.0022
      8 C          63.8041   83.9549    9.3822 C.ar    1  UNL1        0.0113
      9 C          63.5674   83.6704   10.8358 C.ar    1  UNL1        0.0585
     10 CL         64.3182   82.5639   11.5154 Cl      1  UNL1       -0.0822
     11 C          62.5798   84.4924   11.6098 C.ar    1  UNL1        0.0226
     12 C          61.8290   85.5989   10.9302 C.ar    1  UNL1        0.0591
     13 CL         60.8414   86.4209   11.7042 Cl      1  UNL1       -0.0824
     14 C          58.6542   88.9800    6.7904 C.3     1  UNL1        0.2374
     15 O          59.0328   90.4315    6.7896 O.3     1  UNL1       -0.4727
     16 C          60.6596   92.3304    3.0483 C.ar    1  UNL1        0.0481
     17 C          59.2368   92.5747    3.4557 C.ar    1  UNL1        0.0176
     18 C          58.6945   91.9417    4.7028 C.ar    1  UNL1        0.0382
     19 C          59.5750   91.0644    5.5425 C.ar    1  UNL1        0.1388
     20 C          60.9978   90.8202    5.1351 C.ar    1  UNL1        0.0382
     21 C          61.5401   91.4532    3.8880 C.ar    1  UNL1        0.0176
     22 C          64.3086   94.8946   -2.1823 C.3     1  UNL1        0.0948
     23 C          62.8287   94.8624   -1.9401 C.2     1  UNL1        0.2262
     24 O          61.8910   95.4632   -2.9450 O.2     1  UNL1       -0.2749
     25 N          62.2864   94.2294   -0.6930 N.am    1  UNL1       -0.2760
     26 C          63.2240   93.6286    0.3119 C.3     1  UNL1        0.1148
     27 C          62.6818   92.9956    1.5590 C.3     1  UNL1        0.1123
     28 N          61.2018   92.9634    1.8012 N.pl3   1  UNL1       -0.3041
     29 C          60.2642   93.5642    0.7964 C.3     1  UNL1        0.1123
     30 C          60.8065   94.1972   -0.4507 C.3     1  UNL1        0.1148
     31 C          62.4416   87.8468    9.2930 C.3     1  UNL1        0.1682
     32 N          62.1890   88.8792   10.3514 N.ar    1  UNL1       -0.3025
     33 C          62.9243   89.0061   11.6526 C.ar    1  UNL1        0.0982
     34 C          62.3465   90.1713   12.3998 C.ar    1  UNL1        0.1193
     35 N          61.2541   90.7646   11.5604 N.ar    1  UNL1       -0.2223
     36 C          61.1568   89.9660   10.2944 C.ar    1  UNL1        0.1788
@<TRIPOS>BOND
     1    22    23    1
     2    23    24    2
     3    23    25   am
     4    25    26    1
     5    26    27    1
     6    27    28    1
     7    28    16    1
     8    16    17   ar
     9    17    18   ar
    10    18    19   ar
    11    19    15    1
    12    15    14    1
    13     1    14    1
    14     1     2    1
    15     2     3    1
    16     3     4    1
    17     4    31    1
    18    31    32    1
    19    32    33   ar
    20    33    34   ar
    21    34    35   ar
    22    35    36   ar
    23     4     6    1
    24     6     7   ar
    25     7     8   ar
    26     8     9   ar
    27     9    10    1
    28     9    11   ar
    29    11    12   ar
    30    12    13    1
    31     4     5    1
    32    19    20   ar
    33    20    21   ar
    34    28    29    1
    35    29    30    1
    36    30    25    1
    37    21    16   ar
    38     5     1    1
    39    36    32   ar
    40    12     6   ar
