@<TRIPOS>MOLECULE
*****
 28 30 0 0 0
SMALL
GASTEIGER

@<TRIPOS>ATOM
      1 C          61.1466   88.6039    9.4463 C.3     1  UNL1        0.1502
      2 C          60.1074   89.3305    8.6450 C.3     1  UNL1        0.0309
      3 C          59.3059   88.3104    7.8919 C.3     1  UNL1        0.0236
      4 C          59.8497   86.9535    8.2278 C.3     1  UNL1        0.0912
      5 N          60.9874   87.1348    9.1884 N.pl3   1  UNL1       -0.3015
      6 C          61.8197   86.0394    9.7862 C.ar    1  UNL1        0.0481
      7 C          61.6618   85.6828   11.2346 C.ar    1  UNL1        0.0145
      8 C          62.4941   84.5874   11.8324 C.ar    1  UNL1        0.0051
      9 C          63.4843   83.8486   10.9818 C.ar    1  UNL1        0.0715
     10 C          63.6423   84.2052    9.5334 C.ar    1  UNL1        0.0051
     11 C          62.8100   85.3006    8.9356 C.ar    1  UNL1        0.0145
     12 C          64.3166   82.7532   11.5796 C.3     1  UNL1        0.4186
     13 F          65.1489   81.6578   12.1775 F       1  UNL1       -0.1659
     14 F          64.0111   81.8775   10.4007 F       1  UNL1       -0.1659
     15 F          64.6222   83.6288   12.7585 F       1  UNL1       -0.1659
     16 N          62.2675   88.8075   11.7813 N.am    1  UNL1       -0.2654
     17 C          62.1661   89.2354   10.3472 C.2     1  UNL1        0.2453
     18 O          63.0843   90.2951    9.8141 O.2     1  UNL1       -0.2730
     19 H          61.6649   88.1120   12.1312 H       1  UNL1        0.1564
     20 C          64.8575   91.0242   13.6369 C.ar    1  UNL1        0.1549
     21 C          63.8890   90.8025   12.5131 C.ar    1  UNL1        0.0733
     22 C          63.2870   89.4390   12.6822 C.ar    1  UNL1        0.1760
     23 N          63.8835   88.8181   13.9105 N.ar    1  UNL1       -0.0621
     24 O          64.8541   89.7977   14.5005 O.2     1  UNL1       -0.3565
     25 C          65.7873   91.9248   15.3174 C.3     1  UNL1        0.0076
     26 C          65.6843   92.2560   13.8581 C.3     1  UNL1        0.0539
     27 C          65.5814   92.5873   12.3988 C.3     1  UNL1        0.0076
     28 C          66.5111   93.4879   14.0794 C.3     1  UNL1        0.0076
@<TRIPOS>BOND
     1    25    26    1
     2    26    27    1
     3    26    28    1
     4    26    20    1
     5    20    21   ar
     6    21    22   ar
     7    22    16    1
     8    16    17   am
     9    17    18    2
    10     1    17    1
    11     1     2    1
    12     2     3    1
    13     3     4    1
    14     4     5    1
    15     5     6    1
    16     6     7   ar
    17     7     8   ar
    18     8     9   ar
    19     9    12    1
    20    12    13    1
    21    12    14    1
    22    12    15    1
    23     9    10   ar
    24    10    11   ar
    25    22    23   ar
    26    23    24   ar
    27    24    20   ar
    28     5     1    1
    29    11     6   ar
    30    16    19    1
@<TRIPOS>MOLECULE
*****
 28 30 0 0 0
SMALL
GASTEIGER

@<TRIPOS>ATOM
      1 C          64.5309   91.6304   12.3223 C.3     1  UNL1        0.1502
      2 C          65.2972   92.8228   11.8315 C.3     1  UNL1        0.0309
      3 C          66.2103   93.2725   12.9335 C.3     1  UNL1        0.0236
      4 C          66.0082   92.3580   14.1051 C.3     1  UNL1        0.0912
      5 N          64.9703   91.3431   13.7274 N.pl3   1  UNL1       -0.3015
      6 C          64.4611   90.2353   14.6014 C.ar    1  UNL1        0.0481
      7 C          63.6892   90.5570   15.8466 C.ar    1  UNL1        0.0145
      8 C          63.1801   89.4493   16.7205 C.ar    1  UNL1        0.0051
      9 C          63.4429   88.0199   16.3492 C.ar    1  UNL1        0.0715
     10 C          64.2148   87.6983   15.1040 C.ar    1  UNL1        0.0051
     11 C          64.7239   88.8060   14.2301 C.ar    1  UNL1        0.0145
     12 C          62.9337   86.9122   17.2231 C.3     1  UNL1        0.4186
     13 F          62.4246   85.8045   18.0971 F       1  UNL1       -0.1659
     14 F          63.0080   85.9633   16.0638 F       1  UNL1       -0.1659
     15 F          62.8595   87.8610   18.3825 F       1  UNL1       -0.1659
     16 N          62.8962   89.6203   12.1285 N.am    1  UNL1       -0.2654
     17 C          63.5052   90.8604   11.5444 C.2     1  UNL1        0.2453
     18 O          63.0884   91.3305   10.1823 O.2     1  UNL1       -0.2730
     19 H          63.1697   89.3117   13.0225 H       1  UNL1        0.1564
     20 C          60.8271   87.4251    9.6861 C.ar    1  UNL1        0.1549
     21 C          62.1332   88.0089   10.1370 C.ar    1  UNL1        0.0733
     22 C          61.8705   88.8503   11.3507 C.ar    1  UNL1        0.1760
     23 N          60.4020   88.7866   11.6499 N.ar    1  UNL1       -0.0621
     24 O          59.7572   87.9058   10.6212 O.2     1  UNL1       -0.3565
     25 C          59.2275   87.0375    8.3479 C.3     1  UNL1        0.0076
     26 C          60.6262   86.5197    8.5072 C.3     1  UNL1        0.0539
     27 C          62.0249   86.0019    8.6665 C.3     1  UNL1        0.0076
     28 C          60.4252   85.6143    7.3283 C.3     1  UNL1        0.0076
@<TRIPOS>BOND
     1    25    26    1
     2    26    27    1
     3    26    28    1
     4    26    20    1
     5    20    21   ar
     6    21    22   ar
     7    22    16    1
     8    16    17   am
     9    17    18    2
    10     1    17    1
    11     1     2    1
    12     2     3    1
    13     3     4    1
    14     4     5    1
    15     5     6    1
    16     6     7   ar
    17     7     8   ar
    18     8     9   ar
    19     9    12    1
    20    12    13    1
    21    12    14    1
    22    12    15    1
    23     9    10   ar
    24    10    11   ar
    25    22    23   ar
    26    23    24   ar
    27    24    20   ar
    28     5     1    1
    29    11     6   ar
    30    16    19    1
@<TRIPOS>MOLECULE
*****
 28 30 0 0 0
SMALL
GASTEIGER

@<TRIPOS>ATOM
      1 C          63.0163   82.8726   11.9778 C.3     1  UNL1        0.1502
      2 C          63.1071   81.4805   11.4267 C.3     1  UNL1        0.0309
      3 C          63.3938   80.5486   12.5667 C.3     1  UNL1        0.0236
      4 C          63.4801   81.3648   13.8222 C.3     1  UNL1        0.0912
      5 N          63.2468   82.8011   13.4583 N.pl3   1  UNL1       -0.3015
      6 C          63.2444   83.9622   14.4080 C.ar    1  UNL1        0.0481
      7 C          62.1636   84.0840   15.4409 C.ar    1  UNL1        0.0145
      8 C          62.1612   85.2450   16.3906 C.ar    1  UNL1        0.0051
      9 C          63.2397   86.2843   16.3074 C.ar    1  UNL1        0.0715
     10 C          64.3205   86.1625   15.2745 C.ar    1  UNL1        0.0051
     11 C          64.3228   85.0015   14.3248 C.ar    1  UNL1        0.0145
     12 C          63.2373   87.4454   17.2572 C.3     1  UNL1        0.4186
     13 F          63.2348   88.6063   18.2069 F       1  UNL1       -0.1659
     14 F          63.6402   88.3607   16.1392 F       1  UNL1       -0.1659
     15 F          62.8343   86.5300   18.3751 F       1  UNL1       -0.1659
     16 N          61.8178   85.1647   11.7329 N.am    1  UNL1       -0.2654
     17 C          62.7429   84.1177   11.1871 C.2     1  UNL1        0.2453
     18 O          63.3946   84.3157    9.8507 O.2     1  UNL1       -0.2730
     19 H          61.3900   85.0348   12.6100 H       1  UNL1        0.1564
     20 C          60.6647   87.9392    9.2756 C.ar    1  UNL1        0.1549
     21 C          60.6410   86.5161    9.7495 C.ar    1  UNL1        0.0733
     22 C          61.5444   86.4097   10.9422 C.ar    1  UNL1        0.1760
     23 N          62.1264   87.7670   11.2055 N.ar    1  UNL1       -0.0621
     24 O          61.5827   88.7122   10.1755 O.2     1  UNL1       -0.3565
     25 C          60.2947   89.8828    8.5107 C.3     1  UNL1        0.0076
     26 C          59.9039   88.4921    8.1071 C.3     1  UNL1        0.0539
     27 C          59.5131   87.1013    7.7035 C.3     1  UNL1        0.0076
     28 C          59.1431   89.0450    6.9385 C.3     1  UNL1        0.0076
@<TRIPOS>BOND
     1    25    26    1
     2    26    27    1
     3    26    28    1
     4    26    20    1
     5    20    21   ar
     6    21    22   ar
     7    22    16    1
     8    16    17   am
     9    17    18    2
    10     1    17    1
    11     1     2    1
    12     2     3    1
    13     3     4    1
    14     4     5    1
    15     5     6    1
    16     6     7   ar
    17     7     8   ar
    18     8     9   ar
    19     9    12    1
    20    12    13    1
    21    12    14    1
    22    12    15    1
    23     9    10   ar
    24    10    11   ar
    25    22    23   ar
    26    23    24   ar
    27    24    20   ar
    28     5     1    1
    29    11     6   ar
    30    16    19    1
@<TRIPOS>MOLECULE
*****
 28 30 0 0 0
SMALL
GASTEIGER

@<TRIPOS>ATOM
      1 C          64.3358   90.8516   14.8905 C.3     1  UNL1        0.1502
      2 C          63.9154   91.0429   16.3176 C.3     1  UNL1        0.0309
      3 C          64.6984   92.1916   16.8813 C.3     1  UNL1        0.0236
      4 C          65.6026   92.7100   15.8026 C.3     1  UNL1        0.0912
      5 N          65.3785   91.8818   14.5722 N.pl3   1  UNL1       -0.3015
      6 C          66.0748   92.0538   13.2547 C.ar    1  UNL1        0.0481
      7 C          65.3197   92.5801   12.0704 C.ar    1  UNL1        0.0145
      8 C          66.0161   92.7520   10.7530 C.ar    1  UNL1        0.0051
      9 C          67.4675   92.3975   10.6200 C.ar    1  UNL1        0.0715
     10 C          68.2226   91.8712   11.8044 C.ar    1  UNL1        0.0051
     11 C          67.5263   91.6993   13.1217 C.ar    1  UNL1        0.0145
     12 C          68.1639   92.5695    9.3025 C.3     1  UNL1        0.4186
     13 F          68.8602   92.7414    7.9852 F       1  UNL1       -0.1659
     14 F          68.1961   91.0804    9.1252 F       1  UNL1       -0.1659
     15 F          68.1317   94.0586    9.4799 F       1  UNL1       -0.1659
     16 N          62.9212   90.2167   12.8058 N.am    1  UNL1       -0.2654
     17 C          63.8063   89.8123   13.9472 C.2     1  UNL1        0.2453
     18 O          64.1620   88.3687   14.1455 O.2     1  UNL1       -0.2730
     19 H          62.6878   91.1642   12.6756 H       1  UNL1        0.1564
     20 C          61.1960   88.1079   10.0413 C.ar    1  UNL1        0.1549
     21 C          61.4641   89.4237   10.7099 C.ar    1  UNL1        0.0733
     22 C          62.3918   89.1775   11.8625 C.ar    1  UNL1        0.1760
     23 N          62.6971   87.7095   11.9064 N.ar    1  UNL1       -0.0621
     24 O          61.9581   87.0485   10.7808 O.2     1  UNL1       -0.3565
     25 C          60.4872   86.4067    8.9910 C.3     1  UNL1        0.0076
     26 C          60.3198   87.8899    8.8435 C.3     1  UNL1        0.0539
     27 C          60.1523   89.3732    8.6960 C.3     1  UNL1        0.0076
     28 C          59.4435   87.6719    7.6458 C.3     1  UNL1        0.0076
@<TRIPOS>BOND
     1    25    26    1
     2    26    27    1
     3    26    28    1
     4    26    20    1
     5    20    21   ar
     6    21    22   ar
     7    22    16    1
     8    16    17   am
     9    17    18    2
    10     1    17    1
    11     1     2    1
    12     2     3    1
    13     3     4    1
    14     4     5    1
    15     5     6    1
    16     6     7   ar
    17     7     8   ar
    18     8     9   ar
    19     9    12    1
    20    12    13    1
    21    12    14    1
    22    12    15    1
    23     9    10   ar
    24    10    11   ar
    25    22    23   ar
    26    23    24   ar
    27    24    20   ar
    28     5     1    1
    29    11     6   ar
    30    16    19    1
@<TRIPOS>MOLECULE
*****
 28 30 0 0 0
SMALL
GASTEIGER

@<TRIPOS>ATOM
      1 C          63.4438   90.2318   14.3004 C.3     1  UNL1        0.1502
      2 C          62.9787   90.0377   15.7132 C.3     1  UNL1        0.0309
      3 C          63.8247   90.9003   16.6023 C.3     1  UNL1        0.0236
      4 C          64.8125   91.6275   15.7390 C.3     1  UNL1        0.0912
      5 N          64.5772   91.2144   14.3164 N.pl3   1  UNL1       -0.3015
      6 C          65.3411   91.6987   13.1197 C.ar    1  UNL1        0.0481
      7 C          66.8344   91.8238   13.1835 C.ar    1  UNL1        0.0145
      8 C          67.5982   92.3081   11.9868 C.ar    1  UNL1        0.0051
      9 C          66.8687   92.6674   10.7264 C.ar    1  UNL1        0.0715
     10 C          65.3753   92.5423   10.6626 C.ar    1  UNL1        0.0051
     11 C          64.6115   92.0580   11.8593 C.ar    1  UNL1        0.0145
     12 C          67.6325   93.1518    9.5297 C.3     1  UNL1        0.4186
     13 F          68.3964   93.6361    8.3332 F       1  UNL1       -0.1659
     14 F          66.5347   94.1269    9.2236 F       1  UNL1       -0.1659
     15 F          68.7304   92.1766    9.8359 F       1  UNL1       -0.1659
     16 N          61.7601   90.2120   12.3219 N.am    1  UNL1       -0.2654
     17 C          62.8754   89.5612   13.0851 C.2     1  UNL1        0.2453
     18 O          63.4223   88.2397   12.6328 O.2     1  UNL1       -0.2730
     19 H          61.4011   91.0794   12.6187 H       1  UNL1        0.1564
     20 C          60.7995   87.9420    9.3237 C.ar    1  UNL1        0.1549
     21 C          61.6384   88.2291   10.5336 C.ar    1  UNL1        0.0733
     22 C          61.1917   89.5414   11.1065 C.ar    1  UNL1        0.1760
     23 N          60.0766   90.0653   10.2508 N.ar    1  UNL1       -0.0621
     24 O          59.8343   89.0768    9.1489 O.2     1  UNL1       -0.3565
     25 C          59.5838   87.0675    7.8212 C.3     1  UNL1        0.0076
     26 C          60.9070   86.7324    8.4431 C.3     1  UNL1        0.0539
     27 C          62.2302   86.3972    9.0651 C.3     1  UNL1        0.0076
     28 C          61.0144   85.5227    7.5626 C.3     1  UNL1        0.0076
@<TRIPOS>BOND
     1    25    26    1
     2    26    27    1
     3    26    28    1
     4    26    20    1
     5    20    21   ar
     6    21    22   ar
     7    22    16    1
     8    16    17   am
     9    17    18    2
    10     1    17    1
    11     1     2    1
    12     2     3    1
    13     3     4    1
    14     4     5    1
    15     5     6    1
    16     6     7   ar
    17     7     8   ar
    18     8     9   ar
    19     9    12    1
    20    12    13    1
    21    12    14    1
    22    12    15    1
    23     9    10   ar
    24    10    11   ar
    25    22    23   ar
    26    23    24   ar
    27    24    20   ar
    28     5     1    1
    29    11     6   ar
    30    16    19    1
@<TRIPOS>MOLECULE
*****
 28 30 0 0 0
SMALL
GASTEIGER

@<TRIPOS>ATOM
      1 C          64.1450   89.4641   13.8959 C.3     1  UNL1        0.1502
      2 C          65.0991   90.4002   14.5767 C.3     1  UNL1        0.0309
      3 C          65.1311   91.6795   13.7940 C.3     1  UNL1        0.0236
      4 C          64.1968   91.5340   12.6295 C.3     1  UNL1        0.0912
      5 N          63.5873   90.1648   12.6925 N.pl3   1  UNL1       -0.3015
      6 C          62.5945   89.5962   11.7224 C.ar    1  UNL1        0.0481
      7 C          63.0695   88.7995   10.5436 C.ar    1  UNL1        0.0145
      8 C          62.0767   88.2309    9.5736 C.ar    1  UNL1        0.0051
      9 C          60.6089   88.4589    9.7824 C.ar    1  UNL1        0.0715
     10 C          60.1339   89.2556   10.9612 C.ar    1  UNL1        0.0051
     11 C          61.1267   89.8242   11.9312 C.ar    1  UNL1        0.0145
     12 C          59.6161   87.8903    8.8123 C.3     1  UNL1        0.4186
     13 F          58.6233   87.3217    7.8422 F       1  UNL1       -0.1659
     14 F          59.7690   86.5400    9.4472 F       1  UNL1       -0.1659
     15 F          59.4632   89.2406    8.1773 F       1  UNL1       -0.1659
     16 N          63.7810   86.9518   13.3431 N.am    1  UNL1       -0.2654
     17 C          63.8077   88.0718   14.3405 C.2     1  UNL1        0.2453
     18 O          63.4971   87.7995   15.7825 O.2     1  UNL1       -0.2730
     19 H          63.9848   87.1305   12.3967 H       1  UNL1        0.1564
     20 C          62.9820   83.1768   13.7636 C.ar    1  UNL1        0.1549
     21 C          63.3382   84.3527   12.9030 C.ar    1  UNL1        0.0733
     22 C          63.4437   85.5594   13.7877 C.ar    1  UNL1        0.1760
     23 N          63.1527   85.1294   15.1950 N.ar    1  UNL1       -0.0621
     24 O          62.8674   83.6569   15.1801 O.2     1  UNL1       -0.3565
     25 C          61.7132   81.5742   14.3306 C.3     1  UNL1        0.0076
     26 C          62.7765   81.7682   13.2907 C.3     1  UNL1        0.0539
     27 C          63.8400   81.9623   12.2507 C.3     1  UNL1        0.0076
     28 C          62.5711   80.3596   12.8178 C.3     1  UNL1        0.0076
@<TRIPOS>BOND
     1    25    26    1
     2    26    27    1
     3    26    28    1
     4    26    20    1
     5    20    21   ar
     6    21    22   ar
     7    22    16    1
     8    16    17   am
     9    17    18    2
    10     1    17    1
    11     1     2    1
    12     2     3    1
    13     3     4    1
    14     4     5    1
    15     5     6    1
    16     6     7   ar
    17     7     8   ar
    18     8     9   ar
    19     9    12    1
    20    12    13    1
    21    12    14    1
    22    12    15    1
    23     9    10   ar
    24    10    11   ar
    25    22    23   ar
    26    23    24   ar
    27    24    20   ar
    28     5     1    1
    29    11     6   ar
    30    16    19    1
@<TRIPOS>MOLECULE
*****
 28 30 0 0 0
SMALL
GASTEIGER

@<TRIPOS>ATOM
      1 C          61.0230   87.3450    9.4653 C.3     1  UNL1        0.1502
      2 C          60.0165   87.2121    8.3611 C.3     1  UNL1        0.0309
      3 C          59.6757   88.5901    7.8762 C.3     1  UNL1        0.0236
      4 C          60.4716   89.5746    8.6807 C.3     1  UNL1        0.0912
      5 N          61.3042   88.8051    9.6629 N.pl3   1  UNL1       -0.3015
      6 C          62.2518   89.3926   10.6664 C.ar    1  UNL1        0.0481
      7 C          62.5950   88.6286   11.9107 C.ar    1  UNL1        0.0145
      8 C          63.5425   89.2161   12.9142 C.ar    1  UNL1        0.0051
      9 C          64.1469   90.5676   12.6733 C.ar    1  UNL1        0.0715
     10 C          63.8038   91.3317   11.4289 C.ar    1  UNL1        0.0051
     11 C          62.8563   90.7442   10.4255 C.ar    1  UNL1        0.0145
     12 C          65.0945   91.1551   13.6768 C.3     1  UNL1        0.4186
     13 F          66.0421   91.7426   14.6803 F       1  UNL1       -0.1659
     14 F          65.0927   89.8614   14.4360 F       1  UNL1       -0.1659
     15 F          65.0964   92.4488   12.9177 F       1  UNL1       -0.1659
     16 N          62.6002   85.2827    9.5609 N.am    1  UNL1       -0.2654
     17 C          61.6399   86.2161   10.2366 C.2     1  UNL1        0.2453
     18 O          61.2965   86.0205   11.6836 O.2     1  UNL1       -0.2730
     19 H          62.8256   85.4111    8.6112 H       1  UNL1        0.1564
     20 C          63.5619   82.3887   11.9620 C.ar    1  UNL1        0.1549
     21 C          62.6015   83.4452   11.5022 C.ar    1  UNL1        0.0733
     22 C          63.2171   84.1537   10.3322 C.ar    1  UNL1        0.1760
     23 N          64.5580   83.5351   10.0688 N.ar    1  UNL1       -0.0621
     24 O          64.7711   82.4442   11.0761 O.2     1  UNL1       -0.3565
     25 C          63.8478   82.4868   14.0616 C.3     1  UNL1        0.0076
     26 C          63.3503   81.4427   13.1067 C.3     1  UNL1        0.0539
     27 C          62.8526   80.3984   12.1517 C.3     1  UNL1        0.0076
     28 C          63.1386   80.4967   14.2514 C.3     1  UNL1        0.0076
@<TRIPOS>BOND
     1    25    26    1
     2    26    27    1
     3    26    28    1
     4    26    20    1
     5    20    21   ar
     6    21    22   ar
     7    22    16    1
     8    16    17   am
     9    17    18    2
    10     1    17    1
    11     1     2    1
    12     2     3    1
    13     3     4    1
    14     4     5    1
    15     5     6    1
    16     6     7   ar
    17     7     8   ar
    18     8     9   ar
    19     9    12    1
    20    12    13    1
    21    12    14    1
    22    12    15    1
    23     9    10   ar
    24    10    11   ar
    25    22    23   ar
    26    23    24   ar
    27    24    20   ar
    28     5     1    1
    29    11     6   ar
    30    16    19    1
@<TRIPOS>MOLECULE
*****
 28 30 0 0 0
SMALL
GASTEIGER

@<TRIPOS>ATOM
      1 C          64.3333   90.5592   14.8338 C.3     1  UNL1        0.1502
      2 C          63.8822   90.7007   16.2573 C.3     1  UNL1        0.0309
      3 C          64.5752   91.8934   16.8467 C.3     1  UNL1        0.0236
      4 C          65.4546   92.4889   15.7874 C.3     1  UNL1        0.0912
      5 N          65.3050   91.6643   14.5434 N.pl3   1  UNL1       -0.3015
      6 C          66.0045   91.9030   13.2380 C.ar    1  UNL1        0.0481
      7 C          65.2211   92.3424   12.0367 C.ar    1  UNL1        0.0145
      8 C          65.9206   92.5810   10.7315 C.ar    1  UNL1        0.0051
      9 C          67.4034   92.3802   10.6275 C.ar    1  UNL1        0.0715
     10 C          68.1868   91.9408   11.8288 C.ar    1  UNL1        0.0051
     11 C          67.4874   91.7022   13.1341 C.ar    1  UNL1        0.0145
     12 C          68.1029   92.6188    9.3221 C.3     1  UNL1        0.4186
     13 F          68.8023   92.8575    8.0169 F       1  UNL1       -0.1659
     14 F          68.1782   91.1385    9.0918 F       1  UNL1       -0.1659
     15 F          68.0276   94.0991    9.5524 F       1  UNL1       -0.1659
     16 N          63.9544   88.0528   14.2640 N.am    1  UNL1       -0.2654
     17 C          63.8903   89.4987   13.8699 C.2     1  UNL1        0.2453
     18 O          63.3832   89.8840   12.5118 O.2     1  UNL1       -0.2730
     19 H          64.2873   87.7999   15.1554 H       1  UNL1        0.1564
     20 C          63.1180   84.8326   12.2651 C.ar    1  UNL1        0.1549
     21 C          63.7174   85.5150   13.4589 C.ar    1  UNL1        0.0733
     22 C          63.5115   86.9923   13.3001 C.ar    1  UNL1        0.1760
     23 N          62.7849   87.2229   12.0083 N.ar    1  UNL1       -0.0621
     24 O          62.5417   85.8881   11.3686 O.2     1  UNL1       -0.3565
     25 C          63.5648   83.5885   10.6060 C.3     1  UNL1        0.0076
     26 C          63.0984   83.3542   12.0122 C.3     1  UNL1        0.0539
     27 C          62.6321   83.1198   13.4185 C.3     1  UNL1        0.0076
     28 C          63.0788   81.8758   11.7594 C.3     1  UNL1        0.0076
@<TRIPOS>BOND
     1    25    26    1
     2    26    27    1
     3    26    28    1
     4    26    20    1
     5    20    21   ar
     6    21    22   ar
     7    22    16    1
     8    16    17   am
     9    17    18    2
    10     1    17    1
    11     1     2    1
    12     2     3    1
    13     3     4    1
    14     4     5    1
    15     5     6    1
    16     6     7   ar
    17     7     8   ar
    18     8     9   ar
    19     9    12    1
    20    12    13    1
    21    12    14    1
    22    12    15    1
    23     9    10   ar
    24    10    11   ar
    25    22    23   ar
    26    23    24   ar
    27    24    20   ar
    28     5     1    1
    29    11     6   ar
    30    16    19    1
@<TRIPOS>MOLECULE
*****
 28 30 0 0 0
SMALL
GASTEIGER

@<TRIPOS>ATOM
      1 C          63.9241   89.0899   13.8319 C.3     1  UNL1        0.1502
      2 C          64.8092   90.0819   14.5265 C.3     1  UNL1        0.0309
      3 C          64.8093   91.3470   13.7205 C.3     1  UNL1        0.0236
      4 C          63.9243   91.1369   12.5278 C.3     1  UNL1        0.0912
      5 N          63.3772   89.7419   12.5967 N.pl3   1  UNL1       -0.3015
      6 C          62.4465   89.1098   11.6044 C.ar    1  UNL1        0.0481
      7 C          62.9997   88.3375   10.4437 C.ar    1  UNL1        0.0145
      8 C          62.0690   87.7055    9.4515 C.ar    1  UNL1        0.0051
      9 C          60.5852   87.8458    9.6202 C.ar    1  UNL1        0.0715
     10 C          60.0320   88.6181   10.7810 C.ar    1  UNL1        0.0051
     11 C          60.9626   89.2501   11.7731 C.ar    1  UNL1        0.0145
     12 C          59.6545   87.2137    8.6280 C.3     1  UNL1        0.4186
     13 F          58.7238   86.5817    7.6358 F       1  UNL1       -0.1659
     14 F          60.8267   86.8215    7.7783 F       1  UNL1       -0.1659
     15 F          58.4823   87.6059    9.4777 F       1  UNL1       -0.1659
     16 N          63.5495   86.5762   13.2925 N.am    1  UNL1       -0.2654
     17 C          63.6364   87.6915   14.2918 C.2     1  UNL1        0.2453
     18 O          63.4357   87.4082   15.7511 O.2     1  UNL1       -0.2730
     19 H          63.6813   86.7621   12.3348 H       1  UNL1        0.1564
     20 C          62.8631   82.7837   13.7517 C.ar    1  UNL1        0.1549
     21 C          63.1639   83.9641   12.8764 C.ar    1  UNL1        0.0733
     22 C          63.2618   85.1777   13.7525 C.ar    1  UNL1        0.1760
     23 N          63.0217   84.7474   15.1692 N.ar    1  UNL1       -0.0621
     24 O          62.7752   83.2678   15.1687 O.2     1  UNL1       -0.3565
     25 C          63.8170   81.5369   12.3250 C.3     1  UNL1        0.0076
     26 C          62.6820   81.3677   13.2909 C.3     1  UNL1        0.0539
     27 C          61.5470   81.1985   14.2568 C.3     1  UNL1        0.0076
     28 C          62.5010   79.9518   12.8300 C.3     1  UNL1        0.0076
@<TRIPOS>BOND
     1    25    26    1
     2    26    27    1
     3    26    28    1
     4    26    20    1
     5    20    21   ar
     6    21    22   ar
     7    22    16    1
     8    16    17   am
     9    17    18    2
    10     1    17    1
    11     1     2    1
    12     2     3    1
    13     3     4    1
    14     4     5    1
    15     5     6    1
    16     6     7   ar
    17     7     8   ar
    18     8     9   ar
    19     9    12    1
    20    12    13    1
    21    12    14    1
    22    12    15    1
    23     9    10   ar
    24    10    11   ar
    25    22    23   ar
    26    23    24   ar
    27    24    20   ar
    28     5     1    1
    29    11     6   ar
    30    16    19    1
