@<TRIPOS>MOLECULE
*****
 34 38 0 0 0
SMALL
GASTEIGER

@<TRIPOS>ATOM
      1 N          63.7655   87.1076   13.6592 N.3     1  UNL1       -0.1541
      2 C          64.3270   87.7248   14.9057 C.3     1  UNL1        0.0959
      3 C          64.4076   89.2075   14.6930 C.3     1  UNL1        0.0208
      4 C          63.8959   89.5066   13.3151 C.3     1  UNL1        0.0208
      5 C          63.4991   88.2088   12.6762 C.3     1  UNL1        0.0959
      6 C          64.3691   90.6230   14.1981 C.3     1  UNL1        0.0209
      7 S          63.5146   85.6458   13.4351 S.O2    1  UNL1        0.0814
      8 O          64.4638   85.3123   14.5477 O.2     1  UNL1       -0.1513
      9 O          62.5653   85.9794   12.3226 O.2     1  UNL1       -0.1513
     10 C          61.6968   80.7196   13.9912 C.3     1  UNL1        0.1321
     11 N          62.4280   81.9198   13.4666 N.ar    1  UNL1       -0.3047
     12 C          63.3265   81.9496   12.2659 C.ar    1  UNL1        0.1800
     13 N          63.8429   83.3489   12.1080 N.ar    1  UNL1       -0.2042
     14 C          63.2636   84.1841   13.2110 C.ar    1  UNL1        0.2217
     15 C          62.3891   83.3008   14.0508 C.ar    1  UNL1        0.1172
     16 C          64.1385   91.7917   13.2866 C.3     1  UNL1        0.0897
     17 N          64.9943   91.9728   12.0680 N.am    1  UNL1       -0.3009
     18 C          65.9221   93.1474   11.9710 C.2     1  UNL1        0.2458
     19 O          65.9940   94.1410   13.0926 O.2     1  UNL1       -0.2701
     20 H          64.9470   91.3207   11.3320 H       1  UNL1        0.1497
     21 C          66.7779   93.3286   10.7526 C.ar    1  UNL1        0.0573
     22 C          67.6665   92.2132   10.2877 C.ar    1  UNL1        0.0045
     23 C          68.5224   92.3943    9.0692 C.ar    1  UNL1        0.0001
     24 C          68.4896   93.6908    8.3156 C.ar    1  UNL1       -0.0001
     25 C          67.6009   94.8063    8.7805 C.ar    1  UNL1        0.0040
     26 C          66.7451   94.6252    9.9989 C.ar    1  UNL1        0.0758
     27 C          65.8564   95.7405   10.4639 C.3     1  UNL1        0.4187
     28 F          64.9678   96.8560   10.9288 F       1  UNL1       -0.1659
     29 F          67.0630   96.5277   10.8816 F       1  UNL1       -0.1659
     30 F          64.6498   94.9533   10.0461 F       1  UNL1       -0.1659
     31 C          64.9224   91.3335   15.3977 C.3     1  UNL1        0.0017
     32 C          66.3574   91.7699   15.4152 C.3     1  UNL1        0.0001
     33 C          67.7320   91.7390   14.8155 C.3     1  UNL1        0.0000
     34 C          67.4684   92.5567   16.0450 C.3     1  UNL1        0.0000
@<TRIPOS>BOND
     1    10    11    1
     2    11    12   ar
     3    12    13   ar
     4    13    14   ar
     5    14     7    1
     6     7     8    2
     7     7     9    2
     8     7     1    1
     9     1     2    1
    10     3     2    1
    11     3     4    1
    12     4     5    1
    13     4     6    1
    14     6    16    1
    15    16    17    1
    16    17    18   am
    17    18    19    2
    18    18    21    1
    19    21    22   ar
    20    22    23   ar
    21    23    24   ar
    22    24    25   ar
    23    25    26   ar
    24    26    27    1
    25    27    28    1
    26    27    29    1
    27    27    30    1
    28     6    31    1
    29    31    32    1
    30    32    33    1
    31    33    34    1
    32    14    15   ar
    33    15    11   ar
    34     5     1    1
    35    26    21   ar
    36    34    32    1
    37     6     3    1
    38    17    20    1
@<TRIPOS>MOLECULE
*****
 34 38 0 0 0
SMALL
GASTEIGER

@<TRIPOS>ATOM
      1 N          63.7445   90.4642   12.0338 N.3     1  UNL1       -0.1541
      2 C          63.0131   90.8049   10.7693 C.3     1  UNL1        0.0959
      3 C          62.1319   89.6435   10.4163 C.3     1  UNL1        0.0208
      4 C          62.3188   88.5850   11.4626 C.3     1  UNL1        0.0208
      5 C          63.3154   89.0923   12.4623 C.3     1  UNL1        0.0959
      6 C          61.3704   88.3545   10.3235 C.3     1  UNL1        0.0209
      7 S          64.7318   91.3415   12.7450 S.O2    1  UNL1        0.0814
      8 O          64.9071   92.1556   11.4974 O.2     1  UNL1       -0.1513
      9 O          64.5564   90.5274   13.9926 O.2     1  UNL1       -0.1513
     10 C          68.6597   92.9697   15.8757 C.3     1  UNL1        0.1321
     11 N          67.5245   92.9671   14.8952 N.ar    1  UNL1       -0.3047
     12 C          66.9519   94.1702   14.2060 C.ar    1  UNL1        0.1800
     13 N          65.8362   93.7076   13.3167 N.ar    1  UNL1       -0.2042
     14 C          65.7190   92.2188   13.4562 C.ar    1  UNL1        0.2217
     15 C          66.7624   91.7611   14.4318 C.ar    1  UNL1        0.1172
     16 C          60.8790   86.9798   10.6679 C.3     1  UNL1        0.0897
     17 N          61.4552   86.2504   11.8452 N.am    1  UNL1       -0.3009
     18 C          62.5492   85.2444   11.6420 C.2     1  UNL1        0.2458
     19 O          63.0669   84.9679   10.2615 O.2     1  UNL1       -0.2701
     20 H          61.1154   86.4319   12.7512 H       1  UNL1        0.1497
     21 C          63.1255   84.5150   12.8191 C.ar    1  UNL1        0.0573
     22 C          63.2779   85.2177   14.1355 C.ar    1  UNL1        0.0045
     23 C          63.8543   84.4882   15.3128 C.ar    1  UNL1        0.0001
     24 C          64.2781   83.0562   15.1736 C.ar    1  UNL1       -0.0001
     25 C          64.1256   82.3534   13.8572 C.ar    1  UNL1        0.0040
     26 C          63.5493   83.0828   12.6800 C.ar    1  UNL1        0.0758
     27 C          63.3968   82.3801   11.3636 C.3     1  UNL1        0.4187
     28 F          63.2444   81.6775   10.0471 F       1  UNL1       -0.1659
     29 F          64.7920   82.7826   10.9872 F       1  UNL1       -0.1659
     30 F          62.0017   81.9777   11.7399 F       1  UNL1       -0.1659
     31 C          60.5927   88.6015    9.0649 C.3     1  UNL1        0.0017
     32 C          60.0482   87.4446    8.2805 C.3     1  UNL1        0.0001
     33 C          60.2379   86.0933    7.6576 C.3     1  UNL1        0.0000
     34 C          58.9155   86.7921    7.5448 C.3     1  UNL1        0.0000
@<TRIPOS>BOND
     1    10    11    1
     2    11    12   ar
     3    12    13   ar
     4    13    14   ar
     5    14     7    1
     6     7     8    2
     7     7     9    2
     8     7     1    1
     9     1     2    1
    10     3     2    1
    11     3     4    1
    12     4     5    1
    13     4     6    1
    14     6    16    1
    15    16    17    1
    16    17    18   am
    17    18    19    2
    18    18    21    1
    19    21    22   ar
    20    22    23   ar
    21    23    24   ar
    22    24    25   ar
    23    25    26   ar
    24    26    27    1
    25    27    28    1
    26    27    29    1
    27    27    30    1
    28     6    31    1
    29    31    32    1
    30    32    33    1
    31    33    34    1
    32    14    15   ar
    33    15    11   ar
    34     5     1    1
    35    26    21   ar
    36    34    32    1
    37     6     3    1
    38    17    20    1
@<TRIPOS>MOLECULE
*****
 34 38 0 0 0
SMALL
GASTEIGER

@<TRIPOS>ATOM
      1 N          63.3464   89.6661   12.8929 N.3     1  UNL1       -0.1541
      2 C          62.0125   90.0920   12.3550 C.3     1  UNL1        0.0959
      3 C          61.4612   88.9629   11.5357 C.3     1  UNL1        0.0208
      4 C          62.4543   87.8392   11.5673 C.3     1  UNL1        0.0208
      5 C          63.6195   88.2738   12.4060 C.3     1  UNL1        0.0959
      6 C          61.1762   87.6891   10.7966 C.3     1  UNL1        0.0209
      7 S          64.2489   90.4881   13.7645 S.O2    1  UNL1        0.0814
      8 O          63.8955   91.7135   12.9747 O.2     1  UNL1       -0.1513
      9 O          64.6022   89.2628   14.5543 O.2     1  UNL1       -0.1513
     10 C          68.5231   92.9200   15.6876 C.3     1  UNL1        0.1321
     11 N          67.1159   92.4280   15.5201 N.ar    1  UNL1       -0.3047
     12 C          65.9642   92.7224   16.4349 C.ar    1  UNL1        0.1800
     13 N          64.7501   92.0316   15.8886 N.ar    1  UNL1       -0.2042
     14 C          65.1513   91.3102   14.6362 C.ar    1  UNL1        0.2217
     15 C          66.6135   91.5552   14.4084 C.ar    1  UNL1        0.1172
     16 C          61.3570   86.2999   10.2605 C.3     1  UNL1        0.0897
     17 N          61.5359   85.1487   11.2054 N.am    1  UNL1       -0.3009
     18 C          62.6868   84.2035   11.0265 C.2     1  UNL1        0.2458
     19 O          63.6588   84.4095    9.9026 O.2     1  UNL1       -0.2701
     20 H          60.8980   85.0135   11.9430 H       1  UNL1        0.1497
     21 C          62.8658   83.0523   11.9713 C.ar    1  UNL1        0.0573
     22 C          62.5336   81.6587   11.5268 C.ar    1  UNL1        0.0045
     23 C          62.7126   80.5075   12.4716 C.ar    1  UNL1        0.0001
     24 C          63.2237   80.7499   13.8608 C.ar    1  UNL1       -0.0001
     25 C          63.5560   82.1434   14.3053 C.ar    1  UNL1        0.0040
     26 C          63.3770   83.2947   13.3605 C.ar    1  UNL1        0.0758
     27 C          63.7092   84.6883   13.8049 C.3     1  UNL1        0.4187
     28 F          64.0414   86.0819   14.2493 F       1  UNL1       -0.1659
     29 F          65.1238   84.4981   13.3437 F       1  UNL1       -0.1659
     30 F          62.2946   84.8784   14.2661 F       1  UNL1       -0.1659
     31 C          59.8353   88.0215   10.2122 C.3     1  UNL1        0.0017
     32 C          59.5633   87.7568    8.7610 C.3     1  UNL1        0.0001
     33 C          59.4424   88.2526    7.3505 C.3     1  UNL1        0.0000
     34 C          59.2129   86.8025    7.6579 C.3     1  UNL1        0.0000
@<TRIPOS>BOND
     1    10    11    1
     2    11    12   ar
     3    12    13   ar
     4    13    14   ar
     5    14     7    1
     6     7     8    2
     7     7     9    2
     8     7     1    1
     9     1     2    1
    10     3     2    1
    11     3     4    1
    12     4     5    1
    13     4     6    1
    14     6    16    1
    15    16    17    1
    16    17    18   am
    17    18    19    2
    18    18    21    1
    19    21    22   ar
    20    22    23   ar
    21    23    24   ar
    22    24    25   ar
    23    25    26   ar
    24    26    27    1
    25    27    28    1
    26    27    29    1
    27    27    30    1
    28     6    31    1
    29    31    32    1
    30    32    33    1
    31    33    34    1
    32    14    15   ar
    33    15    11   ar
    34     5     1    1
    35    26    21   ar
    36    34    32    1
    37     6     3    1
    38    17    20    1
@<TRIPOS>MOLECULE
*****
 34 38 0 0 0
SMALL
GASTEIGER

@<TRIPOS>ATOM
      1 N          65.0983   91.9848   12.2955 N.3     1  UNL1       -0.1541
      2 C          65.4649   91.4564   13.6507 C.3     1  UNL1        0.0959
      3 C          64.7390   90.1596   13.8544 C.3     1  UNL1        0.0208
      4 C          63.9239   89.8865   12.6252 C.3     1  UNL1        0.0208
      5 C          64.1459   91.0145   11.6617 C.3     1  UNL1        0.0959
      6 C          63.8999   88.9191   13.7713 C.3     1  UNL1        0.0209
      7 S          65.5966   93.2596   11.6818 S.O2    1  UNL1        0.0814
      8 O          66.1854   93.6643   13.0007 O.2     1  UNL1       -0.1513
      9 O          65.0078   92.8548   10.3629 O.2     1  UNL1       -0.1513
     10 C          67.5322   96.7455    8.2202 C.3     1  UNL1        0.1321
     11 N          66.9846   96.1366    9.4770 N.ar    1  UNL1       -0.3047
     12 C          66.7388   96.8554   10.7705 C.ar    1  UNL1        0.1800
     13 N          66.1889   95.8651   11.7538 N.ar    1  UNL1       -0.2042
     14 C          66.0949   94.5343   11.0682 C.ar    1  UNL1        0.2217
     15 C          66.5866   94.7021    9.6610 C.ar    1  UNL1        0.1172
     16 C          62.9551   87.8905   13.2241 C.3     1  UNL1        0.0897
     17 N          62.2618   88.1297   11.9157 N.am    1  UNL1       -0.3009
     18 C          61.5880   86.9933   11.2051 C.2     1  UNL1        0.2458
     19 O          61.6078   85.6177   11.8031 O.2     1  UNL1       -0.2701
     20 H          62.2488   89.0325   11.5232 H       1  UNL1        0.1497
     21 C          60.8947   87.2324    9.8967 C.ar    1  UNL1        0.0573
     22 C          60.6856   86.0961    8.9402 C.ar    1  UNL1        0.0045
     23 C          59.9921   86.3352    7.6317 C.ar    1  UNL1        0.0001
     24 C          59.5079   87.7105    7.2798 C.ar    1  UNL1       -0.0001
     25 C          59.7170   88.8469    8.2364 C.ar    1  UNL1        0.0040
     26 C          60.4104   88.6078    9.5448 C.ar    1  UNL1        0.0758
     27 C          60.6196   89.7441   10.5015 C.3     1  UNL1        0.4187
     28 F          60.8288   90.8804   11.4580 F       1  UNL1       -0.1659
     29 F          61.8138   90.1898    9.7107 F       1  UNL1       -0.1659
     30 F          59.4254   89.2983   11.2921 F       1  UNL1       -0.1659
     31 C          64.2041   88.3088   15.1074 C.3     1  UNL1        0.0017
     32 C          64.3343   86.8204   15.2399 C.3     1  UNL1        0.0001
     33 C          64.9750   85.5301   14.8220 C.3     1  UNL1        0.0000
     34 C          63.9192   85.5326   15.8875 C.3     1  UNL1        0.0000
@<TRIPOS>BOND
     1    10    11    1
     2    11    12   ar
     3    12    13   ar
     4    13    14   ar
     5    14     7    1
     6     7     8    2
     7     7     9    2
     8     7     1    1
     9     1     2    1
    10     3     2    1
    11     3     4    1
    12     4     5    1
    13     4     6    1
    14     6    16    1
    15    16    17    1
    16    17    18   am
    17    18    19    2
    18    18    21    1
    19    21    22   ar
    20    22    23   ar
    21    23    24   ar
    22    24    25   ar
    23    25    26   ar
    24    26    27    1
    25    27    28    1
    26    27    29    1
    27    27    30    1
    28     6    31    1
    29    31    32    1
    30    32    33    1
    31    33    34    1
    32    14    15   ar
    33    15    11   ar
    34     5     1    1
    35    26    21   ar
    36    34    32    1
    37     6     3    1
    38    17    20    1
@<TRIPOS>MOLECULE
*****
 34 38 0 0 0
SMALL
GASTEIGER

@<TRIPOS>ATOM
      1 N          62.2661   86.1248   11.6792 N.3     1  UNL1       -0.1541
      2 C          61.0440   86.4653   10.8788 C.3     1  UNL1        0.0959
      3 C          61.0719   87.9377   10.5939 C.3     1  UNL1        0.0208
      4 C          62.3112   88.5073   11.2182 C.3     1  UNL1        0.0208
      5 C          63.0493   87.3869   11.8889 C.3     1  UNL1        0.0959
      6 C          61.3682   89.4030   10.4709 C.3     1  UNL1        0.0209
      7 S          62.6395   84.7617   12.1816 S.O2    1  UNL1        0.0814
      8 O          62.9004   84.3143   10.7738 O.2     1  UNL1       -0.1513
      9 O          62.3785   85.2091   13.5893 O.2     1  UNL1       -0.1513
     10 C          62.5159   79.5878   13.2286 C.3     1  UNL1        0.1321
     11 N          62.9561   81.0204   13.1653 N.ar    1  UNL1       -0.3047
     12 C          64.2188   81.5815   13.7491 C.ar    1  UNL1        0.1800
     13 N          64.2538   83.0512   13.4516 N.ar    1  UNL1       -0.2042
     14 C          63.0129   83.3986   12.6840 C.ar    1  UNL1        0.2217
     15 C          62.2108   82.1435   12.5070 C.ar    1  UNL1        0.1172
     16 C          62.0776   90.7155   10.6262 C.3     1  UNL1        0.0897
     17 N          62.8790   90.9931   11.8634 N.am    1  UNL1       -0.3009
     18 C          64.2256   91.6448   11.7541 C.2     1  UNL1        0.2458
     19 O          64.7707   92.0190   10.4076 O.2     1  UNL1       -0.2701
     20 H          62.5213   90.7475   12.7471 H       1  UNL1        0.1497
     21 C          65.0271   91.9224   12.9912 C.ar    1  UNL1        0.0573
     22 C          64.6179   91.3174   14.3014 C.ar    1  UNL1        0.0045
     23 C          65.4195   91.5950   15.5385 C.ar    1  UNL1        0.0001
     24 C          66.6301   92.4775   15.4655 C.ar    1  UNL1       -0.0001
     25 C          67.0393   93.0825   14.1553 C.ar    1  UNL1        0.0040
     26 C          66.2379   92.8050   12.9182 C.ar    1  UNL1        0.0758
     27 C          66.6470   93.4099   11.6080 C.3     1  UNL1        0.4187
     28 F          67.0562   94.0148   10.2978 F       1  UNL1       -0.1659
     29 F          67.5386   92.2331   11.3432 F       1  UNL1       -0.1659
     30 F          65.7554   94.5867   11.8729 F       1  UNL1       -0.1659
     31 C          60.1788   89.8429    9.6697 C.3     1  UNL1        0.0017
     32 C          59.8089   89.1118    8.4132 C.3     1  UNL1        0.0001
     33 C          59.4349   89.1319    6.9607 C.3     1  UNL1        0.0000
     34 C          59.5423   87.8253    7.6895 C.3     1  UNL1        0.0000
@<TRIPOS>BOND
     1    10    11    1
     2    11    12   ar
     3    12    13   ar
     4    13    14   ar
     5    14     7    1
     6     7     8    2
     7     7     9    2
     8     7     1    1
     9     1     2    1
    10     3     2    1
    11     3     4    1
    12     4     5    1
    13     4     6    1
    14     6    16    1
    15    16    17    1
    16    17    18   am
    17    18    19    2
    18    18    21    1
    19    21    22   ar
    20    22    23   ar
    21    23    24   ar
    22    24    25   ar
    23    25    26   ar
    24    26    27    1
    25    27    28    1
    26    27    29    1
    27    27    30    1
    28     6    31    1
    29    31    32    1
    30    32    33    1
    31    33    34    1
    32    14    15   ar
    33    15    11   ar
    34     5     1    1
    35    26    21   ar
    36    34    32    1
    37     6     3    1
    38    17    20    1
@<TRIPOS>MOLECULE
*****
 34 38 0 0 0
SMALL
GASTEIGER

@<TRIPOS>ATOM
      1 N          63.2464   86.5374   12.7390 N.3     1  UNL1       -0.1541
      2 C          62.4570   87.2586   11.6870 C.3     1  UNL1        0.0959
      3 C          62.7718   88.7214   11.7929 C.3     1  UNL1        0.0208
      4 C          63.7558   88.9042   12.9102 C.3     1  UNL1        0.0208
      5 C          64.0491   87.5543   13.4950 C.3     1  UNL1        0.0959
      6 C          63.2736   90.0933   12.1335 C.3     1  UNL1        0.0209
      7 S          63.2351   85.0587   12.9908 S.O2    1  UNL1        0.0814
      8 O          64.2274   85.2402   14.1010 O.2     1  UNL1       -0.1513
      9 O          62.2429   84.8772   11.8807 O.2     1  UNL1       -0.1513
     10 C          61.6209   80.1907   14.2473 C.3     1  UNL1        0.1321
     11 N          62.4819   81.3425   13.8202 N.ar    1  UNL1       -0.3047
     12 C          63.9310   81.2667   13.4402 C.ar    1  UNL1        0.1800
     13 N          64.3895   82.6496   13.0833 N.ar    1  UNL1       -0.2042
     14 C          63.2239   83.5800   13.2427 C.ar    1  UNL1        0.2217
     15 C          62.0448   82.7722   13.6981 C.ar    1  UNL1        0.1172
     16 C          64.0346   91.1838   12.8276 C.3     1  UNL1        0.0897
     17 N          64.4792   92.3936   12.0603 N.am    1  UNL1       -0.3009
     18 C          65.9199   92.8105   12.0863 C.2     1  UNL1        0.2458
     19 O          66.9159   92.0176   12.8797 O.2     1  UNL1       -0.2701
     20 H          63.8255   92.9139   11.5396 H       1  UNL1        0.1497
     21 C          66.3646   94.0202   11.3191 C.ar    1  UNL1        0.0573
     22 C          65.9079   95.3854   11.7408 C.ar    1  UNL1        0.0045
     23 C          66.3526   96.5952   10.9735 C.ar    1  UNL1        0.0001
     24 C          67.2539   96.4398    9.7846 C.ar    1  UNL1       -0.0001
     25 C          67.7106   95.0747    9.3629 C.ar    1  UNL1        0.0040
     26 C          67.2659   93.8649   10.1302 C.ar    1  UNL1        0.0758
     27 C          67.7225   92.4997    9.7085 C.3     1  UNL1        0.4187
     28 F          68.1791   91.1345    9.2869 F       1  UNL1       -0.1659
     29 F          66.3027   92.0166    9.7355 F       1  UNL1       -0.1659
     30 F          69.1423   92.9829    9.6816 F       1  UNL1       -0.1659
     31 C          62.5271   90.9038   11.1156 C.3     1  UNL1        0.0017
     32 C          61.0985   90.5759   10.7970 C.3     1  UNL1        0.0001
     33 C          60.0728   90.0163    9.8563 C.3     1  UNL1        0.0000
     34 C          59.6497   90.5674   11.1857 C.3     1  UNL1        0.0000
@<TRIPOS>BOND
     1    10    11    1
     2    11    12   ar
     3    12    13   ar
     4    13    14   ar
     5    14     7    1
     6     7     8    2
     7     7     9    2
     8     7     1    1
     9     1     2    1
    10     3     2    1
    11     3     4    1
    12     4     5    1
    13     4     6    1
    14     6    16    1
    15    16    17    1
    16    17    18   am
    17    18    19    2
    18    18    21    1
    19    21    22   ar
    20    22    23   ar
    21    23    24   ar
    22    24    25   ar
    23    25    26   ar
    24    26    27    1
    25    27    28    1
    26    27    29    1
    27    27    30    1
    28     6    31    1
    29    31    32    1
    30    32    33    1
    31    33    34    1
    32    14    15   ar
    33    15    11   ar
    34     5     1    1
    35    26    21   ar
    36    34    32    1
    37     6     3    1
    38    17    20    1
@<TRIPOS>MOLECULE
*****
 34 38 0 0 0
SMALL
GASTEIGER

@<TRIPOS>ATOM
      1 N          65.0017   91.8254   13.2325 N.3     1  UNL1       -0.1541
      2 C          64.5868   91.8628   14.6735 C.3     1  UNL1        0.0959
      3 C          64.1485   90.4829   15.0656 C.3     1  UNL1        0.0208
      4 C          64.2925   89.5927   13.8669 C.3     1  UNL1        0.0208
      5 C          64.8198   90.4224   12.7340 C.3     1  UNL1        0.0959
      6 C          63.7809   89.0318   15.1606 C.3     1  UNL1        0.0209
      7 S          65.5093   92.9871   12.4307 S.O2    1  UNL1        0.0814
      8 O          65.0594   92.3126   11.1687 O.2     1  UNL1       -0.1513
      9 O          65.9591   93.6616   13.6927 O.2     1  UNL1       -0.1513
     10 C          67.5404   95.8729    8.5029 C.3     1  UNL1        0.1321
     11 N          66.9505   95.4752    9.8235 N.ar    1  UNL1       -0.3047
     12 C          66.6456   96.3974   10.9665 C.ar    1  UNL1        0.1800
     13 N          66.0686   95.5776   12.0823 N.ar    1  UNL1       -0.2042
     14 C          66.0169   94.1487   11.6289 C.ar    1  UNL1        0.2217
     15 C          66.5619   94.0854   10.2328 C.ar    1  UNL1        0.1172
     16 C          63.5650   87.6031   14.7577 C.3     1  UNL1        0.0897
     17 N          63.5655   87.2249   13.3062 N.am    1  UNL1       -0.3009
     18 C          62.9354   85.9365   12.8666 C.2     1  UNL1        0.2458
     19 O          62.3049   85.0264   13.8787 O.2     1  UNL1       -0.2701
     20 H          63.9793   87.8222   12.6420 H       1  UNL1        0.1497
     21 C          62.9359   85.5583   11.4152 C.ar    1  UNL1        0.0573
     22 C          63.5948   84.2856   10.9721 C.ar    1  UNL1        0.0045
     23 C          63.5953   83.9073    9.5205 C.ar    1  UNL1        0.0001
     24 C          62.9370   84.8016    8.5122 C.ar    1  UNL1       -0.0001
     25 C          62.2781   86.0742    8.9553 C.ar    1  UNL1        0.0040
     26 C          62.2776   86.4525   10.4068 C.ar    1  UNL1        0.0758
     27 C          61.6187   87.7251   10.8499 C.3     1  UNL1        0.4187
     28 F          60.9598   88.9977   11.2931 F       1  UNL1       -0.1659
     29 F          60.4119   86.9483   11.2861 F       1  UNL1       -0.1659
     30 F          62.8256   88.5018   10.4138 F       1  UNL1       -0.1659
     31 C          63.3443   88.9670   16.5942 C.3     1  UNL1        0.0017
     32 C          63.0722   87.6389   17.2361 C.3     1  UNL1        0.0001
     33 C          63.0453   86.1410   17.1611 C.3     1  UNL1        0.0000
     34 C          62.6277   86.8363   18.4229 C.3     1  UNL1        0.0000
@<TRIPOS>BOND
     1    10    11    1
     2    11    12   ar
     3    12    13   ar
     4    13    14   ar
     5    14     7    1
     6     7     8    2
     7     7     9    2
     8     7     1    1
     9     1     2    1
    10     3     2    1
    11     3     4    1
    12     4     5    1
    13     4     6    1
    14     6    16    1
    15    16    17    1
    16    17    18   am
    17    18    19    2
    18    18    21    1
    19    21    22   ar
    20    22    23   ar
    21    23    24   ar
    22    24    25   ar
    23    25    26   ar
    24    26    27    1
    25    27    28    1
    26    27    29    1
    27    27    30    1
    28     6    31    1
    29    31    32    1
    30    32    33    1
    31    33    34    1
    32    14    15   ar
    33    15    11   ar
    34     5     1    1
    35    26    21   ar
    36    34    32    1
    37     6     3    1
    38    17    20    1
@<TRIPOS>MOLECULE
*****
 34 38 0 0 0
SMALL
GASTEIGER

@<TRIPOS>ATOM
      1 N          62.6538   89.0055   11.0829 N.3     1  UNL1       -0.1541
      2 C          63.2043   88.5557   12.4037 C.3     1  UNL1        0.0959
      3 C          63.9048   89.7220   13.0353 C.3     1  UNL1        0.0208
      4 C          63.7872   90.8927   12.1049 C.3     1  UNL1        0.0208
      5 C          63.0140   90.4499   10.8982 C.3     1  UNL1        0.0959
      6 C          64.5170   91.0400   13.4071 C.3     1  UNL1        0.0209
      7 S          61.8790   88.1596   10.1165 S.O2    1  UNL1        0.0814
      8 O          62.4389   86.9213   10.7515 O.2     1  UNL1       -0.1513
      9 O          61.3191   89.3978    9.4814 O.2     1  UNL1       -0.1513
     10 C          60.6351   84.4742    6.5455 C.3     1  UNL1        0.1321
     11 N          60.5324   85.6196    7.5086 N.ar    1  UNL1       -0.3047
     12 C          59.2915   86.4039    7.8170 C.ar    1  UNL1        0.1800
     13 N          59.6449   87.4507    8.8314 N.ar    1  UNL1       -0.2042
     14 C          61.1042   87.3136    9.1500 C.ar    1  UNL1        0.2217
     15 C          61.6528   86.1819    8.3325 C.ar    1  UNL1        0.1172
     16 C          64.9250   92.4806   13.3155 C.3     1  UNL1        0.0897
     17 N          65.1004   93.1265   11.9731 N.am    1  UNL1       -0.3009
     18 C          66.0853   94.2448   11.8019 C.2     1  UNL1        0.2458
     19 O          66.8948   94.7171   12.9731 O.2     1  UNL1       -0.2701
     20 H          64.5691   92.8165   11.2044 H       1  UNL1        0.1497
     21 C          66.2608   94.8908   10.4596 C.ar    1  UNL1        0.0573
     22 C          65.5928   96.2011   10.1649 C.ar    1  UNL1        0.0045
     23 C          65.7683   96.8472    8.8225 C.ar    1  UNL1        0.0001
     24 C          66.6116   96.1829    7.7749 C.ar    1  UNL1       -0.0001
     25 C          67.2795   94.8725    8.0696 C.ar    1  UNL1        0.0040
     26 C          67.1041   94.2265    9.4119 C.ar    1  UNL1        0.0758
     27 C          67.7720   92.9161    9.7067 C.3     1  UNL1        0.4187
     28 F          68.4398   91.6057   10.0015 F       1  UNL1       -0.1659
     29 F          66.4305   92.2489    9.7795 F       1  UNL1       -0.1659
     30 F          69.1134   93.5834    9.6339 F       1  UNL1       -0.1659
     31 C          65.1051   90.6870   14.7411 C.3     1  UNL1        0.0017
     32 C          66.2624   91.4731   15.2822 C.3     1  UNL1        0.0001
     33 C          66.7889   92.5965   16.1252 C.3     1  UNL1        0.0000
     34 C          67.7404   91.7112   15.3765 C.3     1  UNL1        0.0000
@<TRIPOS>BOND
     1    10    11    1
     2    11    12   ar
     3    12    13   ar
     4    13    14   ar
     5    14     7    1
     6     7     8    2
     7     7     9    2
     8     7     1    1
     9     1     2    1
    10     3     2    1
    11     3     4    1
    12     4     5    1
    13     4     6    1
    14     6    16    1
    15    16    17    1
    16    17    18   am
    17    18    19    2
    18    18    21    1
    19    21    22   ar
    20    22    23   ar
    21    23    24   ar
    22    24    25   ar
    23    25    26   ar
    24    26    27    1
    25    27    28    1
    26    27    29    1
    27    27    30    1
    28     6    31    1
    29    31    32    1
    30    32    33    1
    31    33    34    1
    32    14    15   ar
    33    15    11   ar
    34     5     1    1
    35    26    21   ar
    36    34    32    1
    37     6     3    1
    38    17    20    1
@<TRIPOS>MOLECULE
*****
 34 38 0 0 0
SMALL
GASTEIGER

@<TRIPOS>ATOM
      1 N          64.9579   91.6584   13.3040 N.3     1  UNL1       -0.1541
      2 C          64.5814   91.6985   14.7554 C.3     1  UNL1        0.0959
      3 C          64.1199   90.3276   15.1525 C.3     1  UNL1        0.0208
      4 C          64.2111   89.4403   13.9465 C.3     1  UNL1        0.0208
      5 C          64.7290   90.2628   12.8040 C.3     1  UNL1        0.0959
      6 C          63.7195   88.8853   15.2505 C.3     1  UNL1        0.0209
      7 S          65.4728   92.8115   12.4945 S.O2    1  UNL1        0.0814
      8 O          64.9685   92.1577   11.2423 O.2     1  UNL1       -0.1513
      9 O          65.9771   93.4654   13.7468 O.2     1  UNL1       -0.1513
     10 C          67.4627   95.6691    8.5252 C.3     1  UNL1        0.1321
     11 N          66.9024   95.2781    9.8606 N.ar    1  UNL1       -0.3047
     12 C          66.6579   96.1999   11.0184 C.ar    1  UNL1        0.1800
     13 N          66.0927   95.3882   12.1459 N.ar    1  UNL1       -0.2042
     14 C          65.9878   93.9646   11.6851 C.ar    1  UNL1        0.2217
     15 C          66.4882   93.8965   10.2727 C.ar    1  UNL1        0.1172
     16 C          63.4584   87.4644   14.8469 C.3     1  UNL1        0.0897
     17 N          63.5010   87.0762   13.3986 N.am    1  UNL1       -0.3009
     18 C          62.8473   85.8053   12.9433 C.2     1  UNL1        0.2458
     19 O          62.1509   84.9226   13.9363 O.2     1  UNL1       -0.2701
     20 H          63.9581   87.6555   12.7470 H       1  UNL1        0.1497
     21 C          62.8899   85.4170   11.4951 C.ar    1  UNL1        0.0573
     22 C          62.4359   86.3870   10.4449 C.ar    1  UNL1        0.0045
     23 C          62.4785   85.9987    8.9966 C.ar    1  UNL1        0.0001
     24 C          62.9751   84.6405    8.5986 C.ar    1  UNL1       -0.0001
     25 C          63.4292   83.6705    9.6487 C.ar    1  UNL1        0.0040
     26 C          63.3866   84.0587   11.0970 C.ar    1  UNL1        0.0758
     27 C          63.8406   83.0887   12.1472 C.3     1  UNL1        0.4187
     28 F          64.2945   82.1187   13.1975 F       1  UNL1       -0.1659
     29 F          62.4997   82.4176   12.1070 F       1  UNL1       -0.1659
     30 F          65.1814   83.7599   12.1874 F       1  UNL1       -0.1659
     31 C          63.3186   88.8238   16.6946 C.3     1  UNL1        0.0017
     32 C          62.9374   87.5110   17.3119 C.3     1  UNL1        0.0001
     33 C          62.4338   86.1053   17.1680 C.3     1  UNL1        0.0000
     34 C          62.7806   86.6426   18.5249 C.3     1  UNL1        0.0000
@<TRIPOS>BOND
     1    10    11    1
     2    11    12   ar
     3    12    13   ar
     4    13    14   ar
     5    14     7    1
     6     7     8    2
     7     7     9    2
     8     7     1    1
     9     1     2    1
    10     3     2    1
    11     3     4    1
    12     4     5    1
    13     4     6    1
    14     6    16    1
    15    16    17    1
    16    17    18   am
    17    18    19    2
    18    18    21    1
    19    21    22   ar
    20    22    23   ar
    21    23    24   ar
    22    24    25   ar
    23    25    26   ar
    24    26    27    1
    25    27    28    1
    26    27    29    1
    27    27    30    1
    28     6    31    1
    29    31    32    1
    30    32    33    1
    31    33    34    1
    32    14    15   ar
    33    15    11   ar
    34     5     1    1
    35    26    21   ar
    36    34    32    1
    37     6     3    1
    38    17    20    1
