@<TRIPOS>MOLECULE
*****
 14 14 0 0 0
SMALL
GASTEIGER

@<TRIPOS>ATOM
      1 N          63.7854   91.8921   16.5041 N.3     1  HIS1       -0.3176
      2 CA         64.1001   90.8760   15.4465 C.3     1  HIS1        0.0938
      3 H1         64.3292   92.7384   16.3350 H       1  HIS1        0.1191
      4 H2         64.0224   91.5132   17.4210 H       1  HIS1        0.1191
      5 C          63.4266   89.5359   15.4700 C.2     1  HIS1        0.0647
      6 O          64.0741   88.3592   14.8021 O.co2   1  HIS1       -0.5478
      7 OXT        62.1054   89.3725   16.1614 O.co2   1  HIS1       -0.5478
      8 CB         65.0883   91.1998   14.3656 C.3     1  HIS1        0.0664
      9 CG         66.3376   91.9618   14.6952 C.ar    1  HIS1        0.0559
     10 CD2        67.6390   91.8847   13.9533 C.ar    1  HIS1        0.1131
     11 NE2        68.6106   92.8099   14.6242 N.ar    1  HIS1       -0.2229
     12 CE1        67.9097   93.4588   15.7808 C.ar    1  HIS1        0.1748
     13 ND1        66.5049   92.9346   15.8247 N.ar    1  HIS1       -0.3381
     14 HD1        65.8140   93.1851   16.4797 H       1  HIS1        0.1672
@<TRIPOS>UNITY_ATOM_ATTR
6 1
charge -1
@<TRIPOS>BOND
     1     2     1    1
     2     2     8    1
     3     8     9    1
     4     9    10   ar
     5    10    11   ar
     6    11    12   ar
     7    12    13   ar
     8     2     5    1
     9     5     6   ar
    10     5     7   ar
    11    13     9   ar
    12     1     3    1
    13     1     4    1
    14    13    14    1
@<TRIPOS>MOLECULE
*****
 14 14 0 0 0
SMALL
GASTEIGER

@<TRIPOS>ATOM
      1 N          65.5943   92.7547   15.6319 N.3     1  HIS1       -0.3176
      2 CA         65.8406   92.1720   14.2718 C.3     1  HIS1        0.0938
      3 H1         64.7931   92.2911   16.0604 H       1  HIS1        0.1191
      4 H2         65.4030   93.7528   15.5447 H       1  HIS1        0.1191
      5 C          66.9706   92.6853   13.4294 C.2     1  HIS1        0.0647
      6 O          68.3168   92.0275   13.4990 O.co2   1  HIS1       -0.5478
      7 OXT        66.7543   93.8564   12.5174 O.co2   1  HIS1       -0.5478
      8 CB         64.9569   91.0761   13.7541 C.3     1  HIS1        0.0664
      9 CG         64.3076   90.1209   14.7112 C.ar    1  HIS1        0.0559
     10 CD2        64.2848   88.6264   14.5861 C.ar    1  HIS1        0.1131
     11 NE2        63.5303   88.0743   15.7591 N.ar    1  HIS1       -0.2229
     12 CE1        63.0867   89.2278   16.6093 C.ar    1  HIS1        0.1748
     13 ND1        63.5672   90.4926   15.9617 N.ar    1  HIS1       -0.3381
     14 HD1        63.4220   91.4064   16.2982 H       1  HIS1        0.1672
@<TRIPOS>UNITY_ATOM_ATTR
6 1
charge -1
@<TRIPOS>BOND
     1     2     1    1
     2     2     8    1
     3     8     9    1
     4     9    10   ar
     5    10    11   ar
     6    11    12   ar
     7    12    13   ar
     8     2     5    1
     9     5     6   ar
    10     5     7   ar
    11    13     9   ar
    12     1     3    1
    13     1     4    1
    14    13    14    1
@<TRIPOS>MOLECULE
*****
 14 14 0 0 0
SMALL
GASTEIGER

@<TRIPOS>ATOM
      1 N          63.8607   91.6298   13.2763 N.3     1  HIS1       -0.3176
      2 CA         65.0718   92.2016   12.6006 C.3     1  HIS1        0.0938
      3 H1         63.1802   91.3462   12.5714 H       1  HIS1        0.1191
      4 H2         63.4459   92.3355   13.8849 H       1  HIS1        0.1191
      5 C          66.2257   92.6954   13.4219 C.2     1  HIS1        0.0647
      6 O          67.3925   91.7932   13.6948 O.co2   1  HIS1       -0.5478
      7 OXT        66.2128   94.0916   13.9703 O.co2   1  HIS1       -0.5478
      8 CB         65.1288   92.2795   11.1038 C.3     1  HIS1        0.0664
      9 CG         66.2607   92.9997   10.4329 C.ar    1  HIS1        0.0559
     10 CD2        67.6338   92.4484   10.1864 C.ar    1  HIS1        0.1131
     11 NE2        68.4400   93.5056    9.4918 N.ar    1  HIS1       -0.2229
     12 CE1        67.5652   94.7102    9.3089 C.ar    1  HIS1        0.1748
     13 ND1        66.2183   94.3975    9.8905 N.ar    1  HIS1       -0.3381
     14 HD1        65.4427   95.0034    9.9125 H       1  HIS1        0.1672
@<TRIPOS>UNITY_ATOM_ATTR
6 1
charge -1
@<TRIPOS>BOND
     1     2     1    1
     2     2     8    1
     3     8     9    1
     4     9    10   ar
     5    10    11   ar
     6    11    12   ar
     7    12    13   ar
     8     2     5    1
     9     5     6   ar
    10     5     7   ar
    11    13     9   ar
    12     1     3    1
    13     1     4    1
    14    13    14    1
@<TRIPOS>MOLECULE
*****
 14 14 0 0 0
SMALL
GASTEIGER

@<TRIPOS>ATOM
      1 N          68.6306   91.8309   13.5844 N.3     1  HIS1       -0.3176
      2 CA         67.2017   92.2816   13.6573 C.3     1  HIS1        0.0938
      3 H1         68.8926   91.6879   12.6090 H       1  HIS1        0.1191
      4 H2         68.7377   90.9556   14.0970 H       1  HIS1        0.1191
      5 C          66.5709   92.5621   14.9890 C.2     1  HIS1        0.0647
      6 O          67.3975   93.1257   16.1067 O.co2   1  HIS1       -0.5478
      7 OXT        65.1135   92.2790   15.2030 O.co2   1  HIS1       -0.5478
      8 CB         66.4038   92.4518   12.3987 C.3     1  HIS1        0.0664
      9 CG         67.0990   92.7603   11.1058 C.ar    1  HIS1        0.0559
     10 CD2        66.6683   93.7812   10.0949 C.ar    1  HIS1        0.1131
     11 NE2        67.6501   93.7539    8.9611 N.ar    1  HIS1       -0.2229
     12 CE1        68.6876   92.7160    9.2714 C.ar    1  HIS1        0.1748
     13 ND1        68.3470   92.1019   10.5969 N.ar    1  HIS1       -0.3381
     14 HD1        68.8537   91.3915   11.0528 H       1  HIS1        0.1672
@<TRIPOS>UNITY_ATOM_ATTR
6 1
charge -1
@<TRIPOS>BOND
     1     2     1    1
     2     2     8    1
     3     8     9    1
     4     9    10   ar
     5    10    11   ar
     6    11    12   ar
     7    12    13   ar
     8     2     5    1
     9     5     6   ar
    10     5     7   ar
    11    13     9   ar
    12     1     3    1
    13     1     4    1
    14    13    14    1
@<TRIPOS>MOLECULE
*****
 14 14 0 0 0
SMALL
GASTEIGER

@<TRIPOS>ATOM
      1 N          66.1110   93.8983   14.5490 N.3     1  HIS1       -0.3176
      2 CA         66.5573   92.9514   13.4745 C.3     1  HIS1        0.0938
      3 H1         65.3427   94.4711   14.1997 H       1  HIS1        0.1191
      4 H2         66.8897   94.5004   14.8165 H       1  HIS1        0.1191
      5 C          67.6816   91.9941   13.7381 C.2     1  HIS1        0.0647
      6 O          67.8053   91.3334   15.0791 O.co2   1  HIS1       -0.5478
      7 OXT        68.6823   91.6975   12.6607 O.co2   1  HIS1       -0.5478
      8 CB         65.8792   92.9618   12.1366 C.3     1  HIS1        0.0664
      9 CG         66.4292   93.8036   11.0236 C.ar    1  HIS1        0.0559
     10 CD2        65.8551   95.0990   10.5314 C.ar    1  HIS1        0.1131
     11 NE2        66.7209   95.5938    9.4109 N.ar    1  HIS1       -0.2229
     12 CE1        67.8302   94.6042    9.2106 C.ar    1  HIS1        0.1748
     13 ND1        67.6499   93.4978   10.2073 N.ar    1  HIS1       -0.3381
     14 HD1        68.2308   92.7093   10.3080 H       1  HIS1        0.1672
@<TRIPOS>UNITY_ATOM_ATTR
6 1
charge -1
@<TRIPOS>BOND
     1     2     1    1
     2     2     8    1
     3     8     9    1
     4     9    10   ar
     5    10    11   ar
     6    11    12   ar
     7    12    13   ar
     8     2     5    1
     9     5     6   ar
    10     5     7   ar
    11    13     9   ar
    12     1     3    1
    13     1     4    1
    14    13    14    1
@<TRIPOS>MOLECULE
*****
 14 14 0 0 0
SMALL
GASTEIGER

@<TRIPOS>ATOM
      1 N          65.3445   95.0910   10.4643 N.3     1  HIS1       -0.3176
      2 CA         66.4011   94.0330   10.3449 C.3     1  HIS1        0.0938
      3 H1         64.6599   94.8102   11.1663 H       1  HIS1        0.1191
      4 H2         64.8793   95.2101    9.5644 H       1  HIS1        0.1191
      5 C          67.5306   94.2073    9.3734 C.2     1  HIS1        0.0647
      6 O          68.8998   93.6998    9.7163 O.co2   1  HIS1       -0.5478
      7 OXT        67.2908   94.8891    8.0590 O.co2   1  HIS1       -0.5478
      8 CB         66.3281   92.8007   11.1970 C.3     1  HIS1        0.0664
      9 CG         66.8753   92.8210   12.5935 C.ar    1  HIS1        0.0559
     10 CD2        66.4088   93.7068   13.7105 C.ar    1  HIS1        0.1131
     11 NE2        67.2303   93.3923   14.9255 N.ar    1  HIS1       -0.2229
     12 CE1        68.2046   92.3122   14.5595 C.ar    1  HIS1        0.1748
     13 ND1        67.9852   91.9591   13.1182 N.ar    1  HIS1       -0.3381
     14 HD1        68.4824   91.2808   12.6065 H       1  HIS1        0.1672
@<TRIPOS>UNITY_ATOM_ATTR
6 1
charge -1
@<TRIPOS>BOND
     1     2     1    1
     2     2     8    1
     3     8     9    1
     4     9    10   ar
     5    10    11   ar
     6    11    12   ar
     7    12    13   ar
     8     2     5    1
     9     5     6   ar
    10     5     7   ar
    11    13     9   ar
    12     1     3    1
    13     1     4    1
    14    13    14    1
@<TRIPOS>MOLECULE
*****
 14 14 0 0 0
SMALL
GASTEIGER

@<TRIPOS>ATOM
      1 N          64.6713   84.4418   15.4141 N.3     1  HIS1       -0.3176
      2 CA         63.2618   84.8661   15.7029 C.3     1  HIS1        0.0938
      3 H1         64.6619   83.6128   14.8198 H       1  HIS1        0.1191
      4 H2         65.1479   84.2269   16.2899 H       1  HIS1        0.1191
      5 C          63.0014   86.0681   16.5616 C.2     1  HIS1        0.0647
      6 O          63.5377   87.4092   16.1570 O.co2   1  HIS1       -0.5478
      7 OXT        62.2048   85.9289   17.8250 O.co2   1  HIS1       -0.5478
      8 CB         62.1128   84.0884   15.1330 C.3     1  HIS1        0.0664
      9 CG         62.3728   82.8728   14.2935 C.ar    1  HIS1        0.0559
     10 CD2        62.6745   82.8640   12.8242 C.ar    1  HIS1        0.1131
     11 NE2        62.8649   81.4383   12.3985 N.ar    1  HIS1       -0.2229
     12 CE1        62.6810   80.5660   13.6048 C.ar    1  HIS1        0.1748
     13 ND1        62.3768   81.4525   14.7760 N.ar    1  HIS1       -0.3381
     14 HD1        62.2092   81.1545   15.6992 H       1  HIS1        0.1672
@<TRIPOS>UNITY_ATOM_ATTR
6 1
charge -1
@<TRIPOS>BOND
     1     2     1    1
     2     2     8    1
     3     8     9    1
     4     9    10   ar
     5    10    11   ar
     6    11    12   ar
     7    12    13   ar
     8     2     5    1
     9     5     6   ar
    10     5     7   ar
    11    13     9   ar
    12     1     3    1
    13     1     4    1
    14    13    14    1
@<TRIPOS>MOLECULE
*****
 14 14 0 0 0
SMALL
GASTEIGER

@<TRIPOS>ATOM
      1 N          63.5859   91.3282   14.9120 N.3     1  HIS1       -0.3176
      2 CA         63.9777   91.0963   13.4827 C.3     1  HIS1        0.0938
      3 H1         64.1639   92.0701   15.3069 H       1  HIS1        0.1191
      4 H2         63.7230   90.4699   15.4457 H       1  HIS1        0.1191
      5 C          63.2728   90.0492   12.6723 C.2     1  HIS1        0.0647
      6 O          62.3364   90.4558   11.5733 O.co2   1  HIS1       -0.5478
      7 OXT        63.5044   88.5955   12.9609 O.co2   1  HIS1       -0.5478
      8 CB         65.0743   91.9114   12.8639 C.3     1  HIS1        0.0664
      9 CG         66.2488   92.3405   13.6925 C.ar    1  HIS1        0.0559
     10 CD2        67.6774   91.9404   13.4709 C.ar    1  HIS1        0.1131
     11 NE2        68.5124   92.5977   14.5296 N.ar    1  HIS1       -0.2229
     12 CE1        67.5999   93.4040   15.4055 C.ar    1  HIS1        0.1748
     13 ND1        66.2009   93.2450   14.8881 N.ar    1  HIS1       -0.3381
     14 HD1        65.3931   93.6613   15.2668 H       1  HIS1        0.1672
@<TRIPOS>UNITY_ATOM_ATTR
6 1
charge -1
@<TRIPOS>BOND
     1     2     1    1
     2     2     8    1
     3     8     9    1
     4     9    10   ar
     5    10    11   ar
     6    11    12   ar
     7    12    13   ar
     8     2     5    1
     9     5     6   ar
    10     5     7   ar
    11    13     9   ar
    12     1     3    1
    13     1     4    1
    14    13    14    1
@<TRIPOS>MOLECULE
*****
 14 14 0 0 0
SMALL
GASTEIGER

@<TRIPOS>ATOM
      1 N          63.9297   88.3121   13.8787 N.3     1  HIS1       -0.3176
      2 CA         63.7295   89.6382   14.5507 C.3     1  HIS1        0.0938
      3 H1         64.1873   88.4609   12.9030 H       1  HIS1        0.1191
      4 H2         63.0643   87.7741   13.9236 H       1  HIS1        0.1191
      5 C          63.3427   89.6942   15.9989 C.2     1  HIS1        0.0647
      6 O          62.9330   88.4414   16.7148 O.co2   1  HIS1       -0.5478
      7 OXT        63.3656   91.0032   16.7312 O.co2   1  HIS1       -0.5478
      8 CB         63.9160   90.9081   13.7746 C.3     1  HIS1        0.0664
      9 CG         65.2830   91.5107   13.6396 C.ar    1  HIS1        0.0559
     10 CD2        65.7240   92.4657   12.5703 C.ar    1  HIS1        0.1131
     11 NE2        67.1626   92.8093   12.8201 N.ar    1  HIS1       -0.2229
     12 CE1        67.6107   92.0667   14.0439 C.ar    1  HIS1        0.1748
     13 ND1        66.4491   91.2641   14.5504 N.ar    1  HIS1       -0.3381
     14 HD1        66.4516   90.6784   15.3416 H       1  HIS1        0.1672
@<TRIPOS>UNITY_ATOM_ATTR
6 1
charge -1
@<TRIPOS>BOND
     1     2     1    1
     2     2     8    1
     3     8     9    1
     4     9    10   ar
     5    10    11   ar
     6    11    12   ar
     7    12    13   ar
     8     2     5    1
     9     5     6   ar
    10     5     7   ar
    11    13     9   ar
    12     1     3    1
    13     1     4    1
    14    13    14    1
