@<TRIPOS>MOLECULE
*****
 64 71 0 0 0
SMALL
GASTEIGER

@<TRIPOS>ATOM
      1 N          62.2007   95.0206   -3.4168 N.3     1  UNL1       -0.1862
      2 C          61.1439   94.6003   -4.3947 C.3     1  UNL1        0.1775
      3 C          59.8496   94.0263   -3.8996 C.2     1  UNL1        0.2452
      4 O          58.7927   93.6059   -4.8776 O.2     1  UNL1       -0.2732
      5 N          59.6120   93.8726   -2.4266 N.am    1  UNL1       -0.2541
      6 C          58.3177   93.2985   -1.9314 C.3     1  UNL1        0.1577
      7 C          58.0802   93.1448   -0.4584 C.2     1  UNL1        0.2445
      8 O          56.7858   92.5708    0.0368 O.2     1  UNL1       -0.2731
      9 N          59.1371   93.5652    0.5196 N.am    1  UNL1       -0.2705
     10 C          60.4314   94.1392    0.0245 C.3     1  UNL1        0.1359
     11 C          60.6689   94.2929   -1.4486 C.3     1  UNL1        0.1908
     12 N          61.9632   94.8669   -1.9438 N.am    1  UNL1       -0.1863
     13 C          63.0201   95.2873   -0.9658 C.2     1  UNL1        0.3191
     14 O          62.7826   95.1336    0.5073 O.2     1  UNL1       -0.2512
     15 N          64.3145   95.8613   -1.4609 N.am    1  UNL1       -0.2836
     16 H          64.4703   95.9622   -2.4277 H       1  UNL1        0.1513
     17 C          63.4951   95.5946   -3.9120 C.3     1  UNL1        0.1188
     18 C          64.6636   95.1979   -6.1982 C.2     1  UNL1       -0.0034
     19 C          64.3951   94.7718   -4.7853 C.2     1  UNL1       -0.0071
     20 C          57.2609   92.8782   -2.9093 C.3     1  UNL1        0.0556
     21 C          56.1447   93.8179   -3.2574 C.ar    1  UNL1       -0.0198
     22 C          55.2282   94.3242   -2.1834 C.ar    1  UNL1       -0.0011
     23 C          54.1120   95.2639   -2.5314 C.ar    1  UNL1        0.0363
     24 C          53.9123   95.6973   -3.9535 C.ar    1  UNL1        0.1337
     25 O          52.7962   96.6370   -4.3015 O.3     1  UNL1       -0.5055
     26 C          54.8289   95.1909   -5.0276 C.ar    1  UNL1        0.0363
     27 C          55.9451   94.2513   -4.6795 C.ar    1  UNL1       -0.0011
     28 H          52.2236   96.9532   -3.6306 H       1  UNL1        0.2922
     29 C          58.8996   93.4115    1.9927 C.3     1  UNL1        0.1217
     30 C          59.8121   92.5492    2.8136 C.ar    1  UNL1        0.0135
     31 C          61.2704   92.4636    2.4730 C.ar    1  UNL1       -0.0012
     32 C          62.1830   91.6014    3.2938 C.ar    1  UNL1       -0.0002
     33 C          61.6372   90.8248    4.4553 C.ar    1  UNL1        0.0015
     34 C          60.1789   90.9105    4.7959 C.ar    1  UNL1        0.0170
     35 C          59.3605   90.2646    5.8744 C.ar    1  UNL1        0.0186
     36 C          57.9422   90.7277    5.7200 C.ar    1  UNL1        0.0759
     37 N          57.8840   91.6597    4.5462 N.ar    1  UNL1       -0.3242
     38 C          56.6586   92.3564    4.0335 C.3     1  UNL1        0.1305
     39 C          59.2664   91.7727    3.9751 C.ar    1  UNL1        0.0575
     40 C          59.8709   89.3213    6.9231 C.ar    1  UNL1        0.0015
     41 C          60.4621   89.8595    8.1923 C.ar    1  UNL1        0.0002
     42 C          60.9724   88.9162    9.2409 C.ar    1  UNL1        0.0045
     43 C          60.8916   87.4347    9.0204 C.ar    1  UNL1        0.0537
     44 C          60.3004   86.8965    7.7512 C.ar    1  UNL1        0.0045
     45 C          59.7901   87.8398    6.7026 C.ar    1  UNL1        0.0002
     46 C          61.4020   86.4915   10.0691 C.2     1  UNL1        0.2495
     47 O          60.9214   86.6128   11.4848 O.2     1  UNL1       -0.2698
     48 N          62.3930   85.4269    9.7021 N.am    1  UNL1       -0.2803
     49 H          62.7085   85.3472    8.7730 H       1  UNL1        0.1552
     50 C          62.9033   84.4837   10.7509 C.ar    1  UNL1        0.0536
     51 C          63.8505   83.3836   10.3732 C.ar    1  UNL1        0.0149
     52 C          64.3609   82.4403   11.4219 C.ar    1  UNL1        0.0044
     53 C          63.9240   82.5971   12.8482 C.ar    1  UNL1        0.0370
     54 C          62.9768   83.6972   13.2259 C.ar    1  UNL1        0.1400
     55 C          62.4664   84.6404   12.1772 C.ar    1  UNL1        0.0516
     56 O          62.5399   83.8540   14.6523 O.3     1  UNL1       -0.4714
     57 C          63.5591   83.8579   15.7528 C.3     1  UNL1        0.2525
     58 C          65.3713   96.2816   -0.4830 C.3     1  UNL1        0.1177
     59 C          65.2863   95.8414    0.9484 C.ar    1  UNL1       -0.0025
     60 C          65.1125   94.3882    1.2772 C.ar    1  UNL1       -0.0026
     61 C          65.0276   93.9480    2.7086 C.ar    1  UNL1       -0.0003
     62 C          65.1165   94.9609    3.8113 C.ar    1  UNL1       -0.0000
     63 C          65.2903   96.4142    3.4826 C.ar    1  UNL1       -0.0003
     64 C          65.3752   96.8544    2.0512 C.ar    1  UNL1       -0.0026
@<TRIPOS>BOND
     1    18    19    2
     2    19    17    1
     3    17     1    1
     4     1     2    1
     5     2     3    1
     6     3     4    2
     7     3     5   am
     8     5     6    1
     9     6    20    1
    10    20    21    1
    11    21    22   ar
    12    22    23   ar
    13    23    24   ar
    14    24    25    1
    15    24    26   ar
    16    26    27   ar
    17     6     7    1
    18     7     8    2
    19     7     9   am
    20     9    29    1
    21    29    30    1
    22    30    31   ar
    23    31    32   ar
    24    32    33   ar
    25    33    34   ar
    26    34    35   ar
    27    35    40    1
    28    40    41   ar
    29    41    42   ar
    30    42    43   ar
    31    43    46    1
    32    46    47    2
    33    46    48   am
    34    48    50    1
    35    50    51   ar
    36    51    52   ar
    37    52    53   ar
    38    53    54   ar
    39    54    56    1
    40    56    57    1
    41    54    55   ar
    42    43    44   ar
    43    44    45   ar
    44    35    36   ar
    45    36    37   ar
    46    37    38    1
    47    37    39   ar
    48     9    10    1
    49    11    10    1
    50    11    12    1
    51    12    13   am
    52    13    14    2
    53    13    15   am
    54    15    58    1
    55    58    59    1
    56    59    60   ar
    57    60    61   ar
    58    61    62   ar
    59    62    63   ar
    60    63    64   ar
    61    12     1    1
    62    64    59   ar
    63    11     5    1
    64    27    21   ar
    65    39    30   ar
    66    39    34   ar
    67    45    40   ar
    68    55    50   ar
    69    25    28    1
    70    48    49    1
    71    15    16    1
