@<TRIPOS>MOLECULE
*****
 31 33 0 0 0
SMALL
GASTEIGER

@<TRIPOS>ATOM
      1 C          61.0848   88.5522    9.9399 C.3     1  UNL1        0.0364
      2 C          59.9700   89.0037   10.8362 C.3     1  UNL1        0.1375
      3 O          59.5610   88.1608   12.0076 O.3     1  UNL1       -0.3820
      4 H          59.1849   87.3253   11.6891 H       1  UNL1        0.2104
      5 C          62.3157   89.3963    9.7904 C.3     1  UNL1        0.0291
      6 C          64.4753   91.6999   12.1945 C.ar    1  UNL1        0.1751
      7 C          63.7504   91.2086   10.9767 C.ar    1  UNL1        0.0360
      8 C          63.0406   89.8876   11.0083 C.ar    1  UNL1       -0.0159
      9 C          63.0558   89.0578   12.2578 C.ar    1  UNL1        0.0360
     10 C          63.7808   89.5491   13.4756 C.ar    1  UNL1        0.1751
     11 C          64.4905   90.8702   13.4439 C.ar    1  UNL1        0.2060
     12 C          66.4223   93.1880   11.3313 C.3     1  UNL1        0.2526
     13 O          65.1851   93.0210   12.1628 O.3     1  UNL1       -0.4683
     14 O          63.7960   88.7193   14.7251 O.3     1  UNL1       -0.4683
     15 C          64.4121   87.3518   14.7099 C.3     1  UNL1        0.2526
     16 O          65.2154   91.3614   14.6618 O.3     1  UNL1       -0.4654
     17 C          66.7150   91.3494   14.6977 C.3     1  UNL1        0.2528
     18 C          60.9687   87.2565    9.1932 C.3     1  UNL1        0.0364
     19 C          59.6363   86.8101    8.6684 C.3     1  UNL1        0.1375
     20 O          59.5668   85.8501    7.5179 O.3     1  UNL1       -0.3820
     21 H          59.9213   86.2743    6.7209 H       1  UNL1        0.2104
     22 C          62.1850   86.4071    8.9713 C.3     1  UNL1        0.0290
     23 C          62.6190   85.4293   10.0229 C.ar    1  UNL1       -0.0189
     24 C          63.4664   84.2502    9.6467 C.ar    1  UNL1       -0.0009
     25 C          63.9004   83.2725   10.6982 C.ar    1  UNL1        0.0399
     26 C          63.4869   83.4739   12.1259 C.ar    1  UNL1        0.1764
     27 C          62.6396   84.6530   12.5022 C.ar    1  UNL1        0.1761
     28 C          62.2056   85.6308   11.4507 C.ar    1  UNL1        0.0359
     29 O          62.3890   84.5911   13.9798 O.3     1  UNL1       -0.4346
     30 C          63.0815   83.3737   14.5168 C.3     1  UNL1        0.4294
     31 O          63.7601   82.6832   13.3710 O.3     1  UNL1       -0.4346
@<TRIPOS>BOND
     1    12    13    1
     2    13     6    1
     3     6     7   ar
     4     7     8   ar
     5     8     5    1
     6     1     5    1
     7     1     2    1
     8     2     3    1
     9     1    18    1
    10    18    19    1
    11    19    20    1
    12    18    22    1
    13    22    23    1
    14    23    24   ar
    15    24    25   ar
    16    25    26   ar
    17    26    27   ar
    18    27    28   ar
    19    27    29    1
    20    29    30    1
    21    30    31    1
    22     8     9   ar
    23     9    10   ar
    24    10    14    1
    25    14    15    1
    26    10    11   ar
    27    11    16    1
    28    16    17    1
    29    11     6   ar
    30    28    23   ar
    31    31    26    1
    32     3     4    1
    33    20    21    1
@<TRIPOS>MOLECULE
*****
 31 33 0 0 0
SMALL
GASTEIGER

@<TRIPOS>ATOM
      1 C          61.0759   88.4971    9.8243 C.3     1  UNL1        0.0364
      2 C          59.9656   88.9289   10.7357 C.3     1  UNL1        0.1375
      3 O          59.5933   88.0831   11.9173 O.3     1  UNL1       -0.3820
      4 H          59.2306   87.2381   11.6086 H       1  UNL1        0.2104
      5 C          62.2846   89.3681    9.6498 C.3     1  UNL1        0.0291
      6 C          63.6787   89.7183   13.3490 C.ar    1  UNL1        0.1751
      7 C          62.9739   89.1641   12.1465 C.ar    1  UNL1        0.0360
      8 C          62.9895   89.9224   10.8523 C.ar    1  UNL1       -0.0159
      9 C          63.7099   91.2349   10.7608 C.ar    1  UNL1        0.0360
     10 C          64.4146   91.7891   11.9633 C.ar    1  UNL1        0.1751
     11 C          64.3990   91.0307   13.2574 C.ar    1  UNL1        0.2060
     12 C          64.3475   87.6288   14.7407 C.3     1  UNL1        0.2526
     13 O          63.6630   88.9600   14.6431 O.3     1  UNL1       -0.4683
     14 O          65.1350   93.1015   11.8717 O.3     1  UNL1       -0.4683
     15 C          66.4351   93.1934   11.1292 C.3     1  UNL1        0.2526
     16 O          65.1038   91.5850   14.4599 O.3     1  UNL1       -0.4654
     17 C          66.5863   91.4098   14.6073 C.3     1  UNL1        0.2528
     18 C          60.9776   87.1943    9.0873 C.3     1  UNL1        0.0364
     19 C          59.6583   86.7434    8.5341 C.3     1  UNL1        0.1375
     20 O          59.6132   85.6931    7.4641 O.3     1  UNL1       -0.3820
     21 H          60.0191   86.0393    6.6540 H       1  UNL1        0.2104
     22 C          62.1985   86.3425    8.9036 C.3     1  UNL1        0.0290
     23 C          62.6267   85.4011    9.9902 C.ar    1  UNL1       -0.0189
     24 C          63.4737   84.2085    9.6585 C.ar    1  UNL1       -0.0009
     25 C          63.9018   83.2671   10.7449 C.ar    1  UNL1        0.0399
     26 C          63.4830   83.5184   12.1632 C.ar    1  UNL1        0.1764
     27 C          62.6359   84.7110   12.4949 C.ar    1  UNL1        0.1761
     28 C          62.2077   85.6524   11.4084 C.ar    1  UNL1        0.0359
     29 O          62.3792   84.7007   13.9727 O.3     1  UNL1       -0.4346
     30 C          63.0676   83.5016   14.5543 C.3     1  UNL1        0.4294
     31 O          63.7498   82.7709   13.4360 O.3     1  UNL1       -0.4346
@<TRIPOS>BOND
     1    12    13    1
     2    13     6    1
     3     6     7   ar
     4     7     8   ar
     5     8     5    1
     6     1     5    1
     7     1     2    1
     8     2     3    1
     9     1    18    1
    10    18    19    1
    11    19    20    1
    12    18    22    1
    13    22    23    1
    14    23    24   ar
    15    24    25   ar
    16    25    26   ar
    17    26    27   ar
    18    27    28   ar
    19    27    29    1
    20    29    30    1
    21    30    31    1
    22     8     9   ar
    23     9    10   ar
    24    10    14    1
    25    14    15    1
    26    10    11   ar
    27    11    16    1
    28    16    17    1
    29    11     6   ar
    30    28    23   ar
    31    31    26    1
    32     3     4    1
    33    20    21    1
@<TRIPOS>MOLECULE
*****
 31 33 0 0 0
SMALL
GASTEIGER

@<TRIPOS>ATOM
      1 C          60.8759   89.6379   10.4053 C.3     1  UNL1        0.0364
      2 C          60.0727   90.1135   11.5795 C.3     1  UNL1        0.1375
      3 O          59.0953   91.2391   11.4132 O.3     1  UNL1       -0.3820
      4 H          59.5751   92.0556   11.2033 H       1  UNL1        0.2104
      5 C          62.2741   90.1405   10.2000 C.3     1  UNL1        0.0291
      6 C          64.0374   89.7479   13.7336 C.ar    1  UNL1        0.1751
      7 C          63.1582   89.4727   12.5500 C.ar    1  UNL1        0.0360
      8 C          63.1535   90.4159   11.3836 C.ar    1  UNL1       -0.0159
      9 C          64.0281   91.6344   11.4010 C.ar    1  UNL1        0.0360
     10 C          64.9074   91.9097   12.5847 C.ar    1  UNL1        0.1751
     11 C          64.9120   90.9664   13.7510 C.ar    1  UNL1        0.2060
     12 C          63.2889   89.1532   16.1494 C.3     1  UNL1        0.2526
     13 O          64.0421   88.8047   14.8999 O.3     1  UNL1       -0.4683
     14 O          65.7820   93.1282   12.6020 O.3     1  UNL1       -0.4683
     15 C          66.2764   93.7150   11.3132 C.3     1  UNL1        0.2526
     16 O          65.7913   91.2418   14.9346 O.3     1  UNL1       -0.4654
     17 C          65.3786   92.2614   15.9544 C.3     1  UNL1        0.2528
     18 C          60.2807   88.6595    9.4365 C.3     1  UNL1        0.0364
     19 C          59.9055   89.1063    8.0547 C.3     1  UNL1        0.1375
     20 O          58.8655   88.3531    7.2794 O.3     1  UNL1       -0.3820
     21 H          59.1938   87.4627    7.0785 H       1  UNL1        0.2104
     22 C          60.0608   87.2344    9.8496 C.3     1  UNL1        0.0290
     23 C          61.2035   86.2628    9.8296 C.ar    1  UNL1       -0.0189
     24 C          61.9309   85.9868    8.5472 C.ar    1  UNL1       -0.0009
     25 C          63.0736   85.0153    8.5272 C.ar    1  UNL1        0.0399
     26 C          63.4889   84.3198    9.7896 C.ar    1  UNL1        0.1764
     27 C          62.7615   84.5958   11.0721 C.ar    1  UNL1        0.1761
     28 C          61.6188   85.5673   11.0921 C.ar    1  UNL1        0.0359
     29 O          63.3921   83.7658   12.1507 O.3     1  UNL1       -0.4346
     30 C          64.5093   82.9768   11.5348 C.3     1  UNL1        0.4294
     31 O          64.5691   83.3191   10.0756 O.3     1  UNL1       -0.4346
@<TRIPOS>BOND
     1    12    13    1
     2    13     6    1
     3     6     7   ar
     4     7     8   ar
     5     8     5    1
     6     1     5    1
     7     1     2    1
     8     2     3    1
     9     1    18    1
    10    18    19    1
    11    19    20    1
    12    18    22    1
    13    22    23    1
    14    23    24   ar
    15    24    25   ar
    16    25    26   ar
    17    26    27   ar
    18    27    28   ar
    19    27    29    1
    20    29    30    1
    21    30    31    1
    22     8     9   ar
    23     9    10   ar
    24    10    14    1
    25    14    15    1
    26    10    11   ar
    27    11    16    1
    28    16    17    1
    29    11     6   ar
    30    28    23   ar
    31    31    26    1
    32     3     4    1
    33    20    21    1
@<TRIPOS>MOLECULE
*****
 31 33 0 0 0
SMALL
GASTEIGER

@<TRIPOS>ATOM
      1 C          61.0633   87.4710    9.5107 C.3     1  UNL1        0.0364
      2 C          59.7668   86.9934    8.9267 C.3     1  UNL1        0.1375
      3 O          59.7635   85.8929    7.9076 O.3     1  UNL1       -0.3820
      4 H          60.2024   86.1998    7.0989 H       1  UNL1        0.2104
      5 C          62.3051   86.6439    9.3567 C.3     1  UNL1        0.0291
      6 C          63.4730   83.1543   10.8430 C.ar    1  UNL1        0.1751
      7 C          63.1735   84.2476    9.8607 C.ar    1  UNL1        0.0360
      8 C          62.6046   85.5505   10.3391 C.ar    1  UNL1       -0.0159
      9 C          62.3352   85.7601   11.7997 C.ar    1  UNL1        0.0360
     10 C          62.6347   84.6667   12.7820 C.ar    1  UNL1        0.1751
     11 C          63.2036   83.3638   12.3036 C.ar    1  UNL1        0.2060
     12 C          63.1766   80.6269   10.3189 C.3     1  UNL1        0.2526
     13 O          64.0418   81.8514   10.3646 O.3     1  UNL1       -0.4683
     14 O          62.3653   84.8763   14.2426 O.3     1  UNL1       -0.4683
     15 C          63.5041   85.1197   15.1880 C.3     1  UNL1        0.2526
     16 O          63.5030   82.2706   13.2860 O.3     1  UNL1       -0.4654
     17 C          62.3806   81.4994   13.9150 C.3     1  UNL1        0.2528
     18 C          61.1180   88.7758   10.2486 C.3     1  UNL1        0.0364
     19 C          59.9572   89.2081   11.0946 C.3     1  UNL1        0.1375
     20 O          59.4431   88.3082   12.1790 O.3     1  UNL1       -0.3820
     21 H          59.0657   87.5073   11.7826 H       1  UNL1        0.2104
     22 C          62.3334   89.6482   10.1406 C.3     1  UNL1        0.0290
     23 C          63.1271   89.9840   11.3684 C.ar    1  UNL1       -0.0189
     24 C          63.2097   89.0026   12.4998 C.ar    1  UNL1       -0.0009
     25 C          64.0033   89.3384   13.7275 C.ar    1  UNL1        0.0399
     26 C          64.7144   90.6556   13.8239 C.ar    1  UNL1        0.1764
     27 C          64.6319   91.6371   12.6925 C.ar    1  UNL1        0.1761
     28 C          63.8382   91.3013   11.4647 C.ar    1  UNL1        0.0359
     29 O          65.4326   92.8480   13.0699 O.3     1  UNL1       -0.4346
     30 C          66.0100   92.6150   14.4345 C.3     1  UNL1        0.4294
     31 O          65.5662   91.2601   14.9005 O.3     1  UNL1       -0.4346
@<TRIPOS>BOND
     1    12    13    1
     2    13     6    1
     3     6     7   ar
     4     7     8   ar
     5     8     5    1
     6     1     5    1
     7     1     2    1
     8     2     3    1
     9     1    18    1
    10    18    19    1
    11    19    20    1
    12    18    22    1
    13    22    23    1
    14    23    24   ar
    15    24    25   ar
    16    25    26   ar
    17    26    27   ar
    18    27    28   ar
    19    27    29    1
    20    29    30    1
    21    30    31    1
    22     8     9   ar
    23     9    10   ar
    24    10    14    1
    25    14    15    1
    26    10    11   ar
    27    11    16    1
    28    16    17    1
    29    11     6   ar
    30    28    23   ar
    31    31    26    1
    32     3     4    1
    33    20    21    1
@<TRIPOS>MOLECULE
*****
 31 33 0 0 0
SMALL
GASTEIGER

@<TRIPOS>ATOM
      1 C          61.0286   87.4318    9.4198 C.3     1  UNL1        0.0364
      2 C          59.7342   86.9632    8.8240 C.3     1  UNL1        0.1375
      3 O          59.7317   85.8560    7.8121 O.3     1  UNL1       -0.3820
      4 H          60.1830   86.1531    7.0065 H       1  UNL1        0.2104
      5 C          62.2745   86.6152    9.2437 C.3     1  UNL1        0.0291
      6 C          62.7365   84.7467   12.7143 C.ar    1  UNL1        0.1751
      7 C          62.3835   85.8025   11.7089 C.ar    1  UNL1        0.0360
      8 C          62.6275   85.5594   10.2490 C.ar    1  UNL1       -0.0159
      9 C          63.2245   84.2606    9.7944 C.ar    1  UNL1        0.0360
     10 C          63.5775   83.2048   10.7998 C.ar    1  UNL1        0.1751
     11 C          63.3335   83.4479   12.2597 C.ar    1  UNL1        0.2060
     12 C          63.6453   85.2790   15.0893 C.3     1  UNL1        0.2526
     13 O          62.4925   84.9898   14.1742 O.3     1  UNL1       -0.4683
     14 O          64.1745   81.9060   10.3452 O.3     1  UNL1       -0.4683
     15 C          63.3231   80.6731   10.2749 C.3     1  UNL1        0.2526
     16 O          63.6865   82.3921   13.2650 O.3     1  UNL1       -0.4654
     17 C          62.6078   81.5476   13.8758 C.3     1  UNL1        0.2528
     18 C          61.0771   88.7169   10.1919 C.3     1  UNL1        0.0364
     19 C          59.9202   89.1144   11.0600 C.3     1  UNL1        0.1375
     20 O          59.4793   88.2179   12.1789 O.3     1  UNL1       -0.3820
     21 H          59.1302   87.3907   11.8119 H       1  UNL1        0.2104
     22 C          62.2824   89.6046   10.0958 C.3     1  UNL1        0.0290
     23 C          63.0734   89.9312   11.3278 C.ar    1  UNL1       -0.0189
     24 C          63.1604   88.9380   12.4485 C.ar    1  UNL1       -0.0009
     25 C          63.9514   89.2646   13.6804 C.ar    1  UNL1        0.0399
     26 C          64.6554   90.5844   13.7916 C.ar    1  UNL1        0.1764
     27 C          64.5685   91.5777   12.6709 C.ar    1  UNL1        0.1761
     28 C          63.7775   91.2511   11.4390 C.ar    1  UNL1        0.0359
     29 O          65.3625   92.7887   13.0621 O.3     1  UNL1       -0.4346
     30 C          65.9402   92.5438   14.4246 C.3     1  UNL1        0.4294
     31 O          65.5032   91.1816   14.8755 O.3     1  UNL1       -0.4346
@<TRIPOS>BOND
     1    12    13    1
     2    13     6    1
     3     6     7   ar
     4     7     8   ar
     5     8     5    1
     6     1     5    1
     7     1     2    1
     8     2     3    1
     9     1    18    1
    10    18    19    1
    11    19    20    1
    12    18    22    1
    13    22    23    1
    14    23    24   ar
    15    24    25   ar
    16    25    26   ar
    17    26    27   ar
    18    27    28   ar
    19    27    29    1
    20    29    30    1
    21    30    31    1
    22     8     9   ar
    23     9    10   ar
    24    10    14    1
    25    14    15    1
    26    10    11   ar
    27    11    16    1
    28    16    17    1
    29    11     6   ar
    30    28    23   ar
    31    31    26    1
    32     3     4    1
    33    20    21    1
@<TRIPOS>MOLECULE
*****
 31 33 0 0 0
SMALL
GASTEIGER

@<TRIPOS>ATOM
      1 C          63.6892   87.6368   15.8886 C.3     1  UNL1        0.0364
      2 C          63.1660   88.8293   16.6331 C.3     1  UNL1        0.1375
      3 O          61.9785   89.5799   16.1075 O.3     1  UNL1       -0.3820
      4 H          62.2099   90.0028   15.2658 H       1  UNL1        0.2104
      5 C          64.4565   87.8260   14.6137 C.3     1  UNL1        0.0291
      6 C          62.8905   89.8162   11.5581 C.ar    1  UNL1        0.1751
      7 C          63.6199   89.5263   12.8363 C.ar    1  UNL1        0.0360
      8 C          63.7271   88.1158   13.3354 C.ar    1  UNL1       -0.0159
      9 C          63.1050   86.9952   12.5561 C.ar    1  UNL1        0.0360
     10 C          62.3757   87.2851   11.2778 C.ar    1  UNL1        0.1751
     11 C          62.2684   88.6956   10.7788 C.ar    1  UNL1        0.2060
     12 C          63.9921   91.9198   10.5039 C.3     1  UNL1        0.2526
     13 O          62.7833   91.2267   11.0591 O.3     1  UNL1       -0.4683
     14 O          61.7536   86.1645   10.4986 O.3     1  UNL1       -0.4683
     15 C          62.6028   85.3115    9.6035 C.3     1  UNL1        0.2526
     16 O          61.5391   88.9854    9.5006 O.3     1  UNL1       -0.4654
     17 C          60.1146   89.4537    9.5395 C.3     1  UNL1        0.2528
     18 C          63.4450   86.2551   16.4190 C.3     1  UNL1        0.0364
     19 C          62.3216   86.0092   17.3821 C.3     1  UNL1        0.1375
     20 O          60.8996   86.0818   16.9100 O.3     1  UNL1       -0.3820
     21 H          60.6921   86.9923   16.6477 H       1  UNL1        0.2104
     22 C          64.3242   85.1194   15.9864 C.3     1  UNL1        0.0290
     23 C          63.8783   84.2028   14.8858 C.ar    1  UNL1       -0.0189
     24 C          62.6514   83.3585   15.0638 C.ar    1  UNL1       -0.0009
     25 C          62.2056   82.4420   13.9633 C.ar    1  UNL1        0.0399
     26 C          62.9867   82.3698   12.6848 C.ar    1  UNL1        0.1764
     27 C          64.2136   83.2142   12.5068 C.ar    1  UNL1        0.1761
     28 C          64.6595   84.1307   13.6073 C.ar    1  UNL1        0.0359
     29 O          64.7769   82.9322   11.1454 O.3     1  UNL1       -0.4346
     30 C          63.8980   81.9136   10.4821 C.3     1  UNL1        0.4294
     31 O          62.7916   81.5660   11.4334 O.3     1  UNL1       -0.4346
@<TRIPOS>BOND
     1    12    13    1
     2    13     6    1
     3     6     7   ar
     4     7     8   ar
     5     8     5    1
     6     1     5    1
     7     1     2    1
     8     2     3    1
     9     1    18    1
    10    18    19    1
    11    19    20    1
    12    18    22    1
    13    22    23    1
    14    23    24   ar
    15    24    25   ar
    16    25    26   ar
    17    26    27   ar
    18    27    28   ar
    19    27    29    1
    20    29    30    1
    21    30    31    1
    22     8     9   ar
    23     9    10   ar
    24    10    14    1
    25    14    15    1
    26    10    11   ar
    27    11    16    1
    28    16    17    1
    29    11     6   ar
    30    28    23   ar
    31    31    26    1
    32     3     4    1
    33    20    21    1
@<TRIPOS>MOLECULE
*****
 31 33 0 0 0
SMALL
GASTEIGER

@<TRIPOS>ATOM
      1 C          63.4233   83.7519   13.7821 C.3     1  UNL1        0.0364
      2 C          62.2246   83.1531   14.4563 C.3     1  UNL1        0.1375
      3 O          62.2901   81.7575   15.0021 O.3     1  UNL1       -0.3820
      4 H          62.3958   81.1290   14.2708 H       1  UNL1        0.2104
      5 C          63.6184   83.5771   12.3051 C.3     1  UNL1        0.0291
      6 C          62.5722   85.3517    8.9130 C.ar    1  UNL1        0.1751
      7 C          63.2289   84.4051    9.8735 C.ar    1  UNL1        0.0360
      8 C          62.9616   84.5239   11.3447 C.ar    1  UNL1       -0.0159
      9 C          62.0376   85.5894   11.8555 C.ar    1  UNL1        0.0360
     10 C          61.3809   86.5361   10.8950 C.ar    1  UNL1        0.1751
     11 C          61.6482   86.4173    9.4238 C.ar    1  UNL1        0.2060
     12 C          61.8550   84.5297    6.5551 C.3     1  UNL1        0.2526
     13 O          62.8395   85.2329    7.4418 O.3     1  UNL1       -0.4683
     14 O          60.4569   87.6016   11.4057 O.3     1  UNL1       -0.4683
     15 C          60.9031   89.0335   11.4285 C.3     1  UNL1        0.2526
     16 O          60.9915   87.3640    8.4634 O.3     1  UNL1       -0.4654
     17 C          59.5883   87.1078    7.9992 C.3     1  UNL1        0.2528
     18 C          64.4269   84.5254   14.5849 C.3     1  UNL1        0.0364
     19 C          65.8713   84.5256   14.1802 C.3     1  UNL1        0.1375
     20 O          66.8559   85.3859   14.9154 O.3     1  UNL1       -0.3820
     21 H          66.6449   86.3205   14.7642 H       1  UNL1        0.2104
     22 C          63.9861   85.2987   15.7922 C.3     1  UNL1        0.0290
     23 C          63.8292   86.7884   15.7127 C.ar    1  UNL1       -0.0189
     24 C          63.2424   87.5435   16.8682 C.ar    1  UNL1       -0.0009
     25 C          63.0856   89.0332   16.7886 C.ar    1  UNL1        0.0399
     26 C          63.5156   89.7677   15.5535 C.ar    1  UNL1        0.1764
     27 C          64.1024   89.0125   14.3979 C.ar    1  UNL1        0.1761
     28 C          64.2593   87.5229   14.4774 C.ar    1  UNL1        0.0359
     29 O          64.4338   90.0004   13.3189 O.3     1  UNL1       -0.4346
     30 C          64.0517   91.3661   13.8076 C.3     1  UNL1        0.4294
     31 O          63.4842   91.2223   15.1886 O.3     1  UNL1       -0.4346
@<TRIPOS>BOND
     1    12    13    1
     2    13     6    1
     3     6     7   ar
     4     7     8   ar
     5     8     5    1
     6     1     5    1
     7     1     2    1
     8     2     3    1
     9     1    18    1
    10    18    19    1
    11    19    20    1
    12    18    22    1
    13    22    23    1
    14    23    24   ar
    15    24    25   ar
    16    25    26   ar
    17    26    27   ar
    18    27    28   ar
    19    27    29    1
    20    29    30    1
    21    30    31    1
    22     8     9   ar
    23     9    10   ar
    24    10    14    1
    25    14    15    1
    26    10    11   ar
    27    11    16    1
    28    16    17    1
    29    11     6   ar
    30    28    23   ar
    31    31    26    1
    32     3     4    1
    33    20    21    1
@<TRIPOS>MOLECULE
*****
 31 33 0 0 0
SMALL
GASTEIGER

@<TRIPOS>ATOM
      1 C          61.0101   89.1018   10.2315 C.3     1  UNL1        0.0364
      2 C          60.0170   89.3576   11.3262 C.3     1  UNL1        0.1375
      3 O          59.6138   90.7634   11.6596 O.3     1  UNL1       -0.3820
      4 H          60.3773   91.2424   12.0179 H       1  UNL1        0.2104
      5 C          62.2093   89.9907   10.0839 C.3     1  UNL1        0.0291
      6 C          64.7956   91.8097   12.4822 C.ar    1  UNL1        0.1751
      7 C          63.9276   91.5179   11.2942 C.ar    1  UNL1        0.0360
      8 C          63.0773   90.2824   11.2720 C.ar    1  UNL1       -0.0159
      9 C          63.0949   89.3388   12.4379 C.ar    1  UNL1        0.0360
     10 C          63.9628   89.6306   13.6259 C.ar    1  UNL1        0.1751
     11 C          64.8132   90.8661   13.6481 C.ar    1  UNL1        0.2060
     12 C          65.8219   93.8572   11.2555 C.3     1  UNL1        0.2526
     13 O          65.6460   93.0452   12.5044 O.3     1  UNL1       -0.4683
     14 O          63.9804   88.6870   14.7918 O.3     1  UNL1       -0.4683
     15 C          63.3723   89.0992   16.0996 C.3     1  UNL1        0.2526
     16 O          65.6811   91.1579   14.8362 O.3     1  UNL1       -0.4654
     17 C          65.2534   92.1837   15.8435 C.3     1  UNL1        0.2528
     18 C          60.8039   87.9570    9.2843 C.3     1  UNL1        0.0364
     19 C          59.4663   87.7502    8.6378 C.3     1  UNL1        0.1375
     20 O          59.0616   86.3827    8.1726 O.3     1  UNL1       -0.3820
     21 H          59.6387   86.1051    7.4441 H       1  UNL1        0.2104
     22 C          61.9353   87.0192    8.9837 C.3     1  UNL1        0.0290
     23 C          62.3351   85.9798    9.9887 C.ar    1  UNL1       -0.0189
     24 C          61.8798   86.0992   11.4128 C.ar    1  UNL1       -0.0009
     25 C          62.2796   85.0599   12.4177 C.ar    1  UNL1        0.0399
     26 C          63.1347   83.9010   11.9985 C.ar    1  UNL1        0.1764
     27 C          63.5901   83.7816   10.5742 C.ar    1  UNL1        0.1761
     28 C          63.1903   84.8209    9.5693 C.ar    1  UNL1        0.0359
     29 O          64.4199   82.5376   10.4557 O.3     1  UNL1       -0.4346
     30 C          64.4773   81.8883   11.8066 C.3     1  UNL1        0.4294
     31 O          63.6831   82.7309   12.7601 O.3     1  UNL1       -0.4346
@<TRIPOS>BOND
     1    12    13    1
     2    13     6    1
     3     6     7   ar
     4     7     8   ar
     5     8     5    1
     6     1     5    1
     7     1     2    1
     8     2     3    1
     9     1    18    1
    10    18    19    1
    11    19    20    1
    12    18    22    1
    13    22    23    1
    14    23    24   ar
    15    24    25   ar
    16    25    26   ar
    17    26    27   ar
    18    27    28   ar
    19    27    29    1
    20    29    30    1
    21    30    31    1
    22     8     9   ar
    23     9    10   ar
    24    10    14    1
    25    14    15    1
    26    10    11   ar
    27    11    16    1
    28    16    17    1
    29    11     6   ar
    30    28    23   ar
    31    31    26    1
    32     3     4    1
    33    20    21    1
@<TRIPOS>MOLECULE
*****
 31 33 0 0 0
SMALL
GASTEIGER

@<TRIPOS>ATOM
      1 C          63.5557   83.7127   12.6995 C.3     1  UNL1        0.0364
      2 C          64.8580   83.2362   12.1277 C.3     1  UNL1        0.1375
      3 O          64.9663   82.9277   10.6638 O.3     1  UNL1       -0.3820
      4 H          64.4070   82.1640   10.4521 H       1  UNL1        0.2104
      5 C          62.3904   83.9771   11.7927 C.3     1  UNL1        0.0291
      6 C          61.2266   86.8805    9.3502 C.ar    1  UNL1        0.1751
      7 C          61.4313   85.5118    9.9285 C.ar    1  UNL1        0.0360
      8 C          62.1857   85.3460   11.2144 C.ar    1  UNL1       -0.0159
      9 C          62.7353   86.5490   11.9219 C.ar    1  UNL1        0.0360
     10 C          62.5306   87.9178   11.3436 C.ar    1  UNL1        0.1751
     11 C          61.7762   88.0836   10.0577 C.ar    1  UNL1        0.2060
     12 C          59.0318   86.6361    7.9816 C.3     1  UNL1        0.2526
     13 O          60.4722   87.0463    8.0643 O.3     1  UNL1       -0.4683
     14 O          63.0802   89.1209   12.0511 O.3     1  UNL1       -0.4683
     15 C          62.1467   90.1166   12.6732 C.3     1  UNL1        0.2526
     16 O          61.5715   89.4524    9.4795 O.3     1  UNL1       -0.4654
     17 C          60.2530   90.1478    9.6471 C.3     1  UNL1        0.2528
     18 C          63.4186   83.9247   14.1780 C.3     1  UNL1        0.0364
     19 C          62.2653   83.3162   14.9193 C.3     1  UNL1        0.1375
     20 O          62.0541   81.8314   14.8894 O.3     1  UNL1       -0.3820
     21 H          61.8311   81.5546   13.9868 H       1  UNL1        0.2104
     22 C          64.4349   84.7453   14.9154 C.3     1  UNL1        0.0290
     23 C          64.0555   86.0853   15.4728 C.ar    1  UNL1       -0.0189
     24 C          63.1764   86.1718   16.6851 C.ar    1  UNL1       -0.0009
     25 C          62.7970   87.5117   17.2424 C.ar    1  UNL1        0.0399
     26 C          63.2968   88.7652   16.5875 C.ar    1  UNL1        0.1764
     27 C          64.1759   88.6788   15.3752 C.ar    1  UNL1        0.1761
     28 C          64.5553   87.3389   14.8178 C.ar    1  UNL1        0.0359
     29 O          64.5137   90.0761   14.9470 O.3     1  UNL1       -0.4346
     30 C          63.8433   91.0261   15.8947 C.3     1  UNL1        0.4294
     31 O          63.0912   90.2159   16.9086 O.3     1  UNL1       -0.4346
@<TRIPOS>BOND
     1    12    13    1
     2    13     6    1
     3     6     7   ar
     4     7     8   ar
     5     8     5    1
     6     1     5    1
     7     1     2    1
     8     2     3    1
     9     1    18    1
    10    18    19    1
    11    19    20    1
    12    18    22    1
    13    22    23    1
    14    23    24   ar
    15    24    25   ar
    16    25    26   ar
    17    26    27   ar
    18    27    28   ar
    19    27    29    1
    20    29    30    1
    21    30    31    1
    22     8     9   ar
    23     9    10   ar
    24    10    14    1
    25    14    15    1
    26    10    11   ar
    27    11    16    1
    28    16    17    1
    29    11     6   ar
    30    28    23   ar
    31    31    26    1
    32     3     4    1
    33    20    21    1
