@<TRIPOS>MOLECULE
*****
 38 43 0 0 0
SMALL
GASTEIGER

@<TRIPOS>ATOM
      1 C          63.5868   89.4214   13.3493 C.ar    1  UNL1        0.0447
      2 C          64.3971   89.5403   14.6060 C.ar    1  UNL1        0.0156
      3 C          64.8996   88.3057   15.2939 C.ar    1  UNL1        0.0159
      4 C          64.5919   86.9523   14.7251 C.ar    1  UNL1        0.0507
      5 C          63.7816   86.8334   13.4684 C.ar    1  UNL1        0.0193
      6 C          63.2790   88.0679   12.7806 C.ar    1  UNL1        0.0157
      7 C          63.6382   85.3756   13.1456 C.2     1  UNL1        0.0623
      8 C          62.9023   84.8008   11.9717 C.2     1  UNL1        0.0928
      9 C          64.3599   84.5935   14.2027 C.2     1  UNL1        0.2498
     10 O          64.4724   83.0992   14.2715 O.2     1  UNL1       -0.2698
     11 N          64.9494   85.5679   15.1789 N.am    1  UNL1       -0.2804
     12 H          65.4780   85.3391   15.9773 H       1  UNL1        0.1552
     13 C          62.8439   83.3145   11.7776 C.2     1  UNL1        0.3754
     14 N          62.4775   82.3027   12.8226 N.2     1  UNL1       -0.0308
     15 C          62.5487   80.9419   12.1953 C.2     1  UNL1        0.2321
     16 C          62.2929   79.5694   12.7436 C.2     1  UNL1        0.0498
     17 C          62.4475   78.3677   11.8593 C.2     1  UNL1       -0.0002
     18 C          62.8580   78.5386   10.4267 C.2     1  UNL1       -0.0172
     19 C          63.1139   79.9112    9.8784 C.3     1  UNL1        0.1037
     20 C          62.9592   81.1129   10.7627 C.2     1  UNL1        0.2178
     21 N          63.1417   82.5792   10.5046 N.2     1  UNL1       -0.0347
     22 C          62.2249   85.7122   10.9917 C.ar    1  UNL1        0.0076
     23 C          62.7030   85.7747    9.5713 C.ar    1  UNL1       -0.0001
     24 C          62.0256   86.6861    8.5913 C.ar    1  UNL1       -0.0043
     25 C          60.8700   87.5350    9.0316 C.ar    1  UNL1       -0.0218
     26 C          60.1925   88.4464    8.0517 C.3     1  UNL1        0.0310
     27 C          60.3918   87.4726   10.4520 C.ar    1  UNL1       -0.0043
     28 C          61.0693   86.5611   11.4321 C.ar    1  UNL1       -0.0001
     29 N          63.0841   90.6560   12.6613 N.pl3   1  UNL1       -0.3339
     30 H          62.1159   90.8151   12.5810 H       1  UNL1        0.1468
     31 N          66.0019   93.6323   10.9648 N.3     1  UNL1       -0.2726
     32 C          64.9895   92.9809   10.0701 C.3     1  UNL1        0.0738
     33 C          64.0168   91.9887   10.6356 C.3     1  UNL1        0.0368
     34 C          64.0567   91.6480   12.0958 C.3     1  UNL1        0.0718
     35 C          65.0692   92.2995   12.9906 C.3     1  UNL1        0.0368
     36 C          66.0417   93.2916   12.4251 C.3     1  UNL1        0.0738
     37 C          67.9017   94.2183    9.2923 C.3     1  UNL1        0.0188
     38 C          66.9744   94.6244   10.3993 C.3     1  UNL1        0.0721
@<TRIPOS>BOND
     1    37    38    1
     2    38    31    1
     3    31    32    1
     4    32    33    1
     5    33    34    1
     6    34    29    1
     7    29     1    1
     8     1     2   ar
     9     2     3   ar
    10     3     4   ar
    11     4     5   ar
    12     5     6   ar
    13     5     7    1
    14     7     8    2
    15     8    22    1
    16    22    23   ar
    17    23    24   ar
    18    24    25   ar
    19    25    26    1
    20    25    27   ar
    21    27    28   ar
    22     8    13    1
    23    13    14    2
    24    14    15    1
    25    15    16    2
    26    16    17    1
    27    17    18    2
    28    18    19    1
    29    19    20    1
    30    20    21    2
    31     7     9    1
    32     9    10    2
    33     9    11   am
    34    34    35    1
    35    35    36    1
    36    36    31    1
    37     6     1   ar
    38    28    22   ar
    39    21    13    1
    40    11     4    1
    41    20    15    1
    42    29    30    1
    43    11    12    1
@<TRIPOS>MOLECULE
*****
 38 43 0 0 0
SMALL
GASTEIGER

@<TRIPOS>ATOM
      1 C          61.5728   88.2447   11.2057 C.ar    1  UNL1        0.0447
      2 C          61.2946   88.8965    9.8837 C.ar    1  UNL1        0.0156
      3 C          62.0394   90.1369    9.4876 C.ar    1  UNL1        0.0159
      4 C          63.0623   90.7254   10.4136 C.ar    1  UNL1        0.0507
      5 C          63.3405   90.0735   11.7355 C.ar    1  UNL1        0.0193
      6 C          62.5957   88.8332   12.1316 C.ar    1  UNL1        0.0157
      7 C          64.3970   90.8763   12.4350 C.2     1  UNL1        0.0623
      8 C          64.9769   90.5826   13.7868 C.2     1  UNL1        0.0928
      9 C          64.7719   92.0243   11.5452 C.2     1  UNL1        0.2498
     10 O          65.7924   93.0802   11.8512 O.2     1  UNL1       -0.2698
     11 N          63.9470   91.9311   10.2959 N.am    1  UNL1       -0.2804
     12 H          63.9803   92.5521    9.5327 H       1  UNL1        0.1552
     13 C          66.0330   91.4799   14.3609 C.2     1  UNL1        0.3754
     14 N          67.3085   91.0353   15.0132 N.2     1  UNL1       -0.0308
     15 C          68.0628   92.2600   15.4389 C.2     1  UNL1        0.2321
     16 C          69.3821   92.4362   16.1307 C.2     1  UNL1        0.0498
     17 C          69.8920   93.8141   16.4333 C.2     1  UNL1       -0.0002
     18 C          69.0827   95.0156   16.0441 C.2     1  UNL1       -0.0172
     19 C          67.7634   94.8393   15.3523 C.3     1  UNL1        0.1037
     20 C          67.2535   93.4614   15.0497 C.2     1  UNL1        0.2178
     21 N          65.9990   92.9794   14.3835 N.2     1  UNL1       -0.0347
     22 C          64.5008   89.3917   14.5646 C.ar    1  UNL1        0.0076
     23 C          64.9392   88.0130   14.1683 C.ar    1  UNL1       -0.0001
     24 C          64.4632   86.8220   14.9461 C.ar    1  UNL1       -0.0043
     25 C          63.5486   87.0097   16.1201 C.ar    1  UNL1       -0.0218
     26 C          63.0725   85.8188   16.8979 C.3     1  UNL1        0.0310
     27 C          63.1101   88.3884   16.5164 C.ar    1  UNL1       -0.0043
     28 C          63.5863   89.5794   15.7386 C.ar    1  UNL1       -0.0001
     29 N          60.8281   87.0043   11.6018 N.pl3   1  UNL1       -0.3339
     30 H          59.8506   87.0325   11.7164 H       1  UNL1        0.1468
     31 N          63.0614   83.1547   12.2667 N.3     1  UNL1       -0.2726
     32 C          62.7728   83.6228   10.8712 C.3     1  UNL1        0.0738
     33 C          62.0283   84.9061   10.6495 C.3     1  UNL1        0.0368
     34 C          61.5725   85.7211   11.8234 C.3     1  UNL1        0.0718
     35 C          61.8612   85.2529   13.2190 C.3     1  UNL1        0.0368
     36 C          62.6056   83.9697   13.4406 C.3     1  UNL1        0.0738
     37 C          63.2644   80.8447   13.4385 C.3     1  UNL1        0.0188
     38 C          63.8059   81.8715   12.4883 C.3     1  UNL1        0.0721
@<TRIPOS>BOND
     1    37    38    1
     2    38    31    1
     3    31    32    1
     4    32    33    1
     5    33    34    1
     6    34    29    1
     7    29     1    1
     8     1     2   ar
     9     2     3   ar
    10     3     4   ar
    11     4     5   ar
    12     5     6   ar
    13     5     7    1
    14     7     8    2
    15     8    22    1
    16    22    23   ar
    17    23    24   ar
    18    24    25   ar
    19    25    26    1
    20    25    27   ar
    21    27    28   ar
    22     8    13    1
    23    13    14    2
    24    14    15    1
    25    15    16    2
    26    16    17    1
    27    17    18    2
    28    18    19    1
    29    19    20    1
    30    20    21    2
    31     7     9    1
    32     9    10    2
    33     9    11   am
    34    34    35    1
    35    35    36    1
    36    36    31    1
    37     6     1   ar
    38    28    22   ar
    39    21    13    1
    40    11     4    1
    41    20    15    1
    42    29    30    1
    43    11    12    1
@<TRIPOS>MOLECULE
*****
 38 43 0 0 0
SMALL
GASTEIGER

@<TRIPOS>ATOM
      1 C          59.8543   93.5459    1.4334 C.ar    1  UNL1        0.0447
      2 C          58.5793   92.9742    0.8881 C.ar    1  UNL1        0.0156
      3 C          58.4142   92.7852   -0.5907 C.ar    1  UNL1        0.0159
      4 C          59.5241   93.1680   -1.5242 C.ar    1  UNL1        0.0507
      5 C          60.7991   93.7398   -0.9789 C.ar    1  UNL1        0.0193
      6 C          60.9642   93.9287    0.4999 C.ar    1  UNL1        0.0157
      7 C          61.7119   94.0229   -2.1351 C.2     1  UNL1        0.0623
      8 C          63.0931   94.6013   -2.0468 C.2     1  UNL1        0.0928
      9 C          61.0010   93.6261   -3.3949 C.2     1  UNL1        0.2498
     10 O          61.5465   93.7381   -4.7878 O.2     1  UNL1       -0.2698
     11 N          59.6488   93.0978   -3.0175 N.am    1  UNL1       -0.2804
     12 H          58.9636   92.7636   -3.6403 H       1  UNL1        0.1552
     13 C          63.8918   94.8296   -3.2958 C.2     1  UNL1        0.3754
     14 N          64.5496   93.7691   -4.1279 N.2     1  UNL1       -0.0308
     15 C          65.2373   94.4427   -5.2784 C.2     1  UNL1        0.2321
     16 C          66.0454   93.9020   -6.4206 C.2     1  UNL1        0.0498
     17 C          66.6206   94.8382   -7.4417 C.2     1  UNL1       -0.0002
     18 C          66.3878   96.3151   -7.3205 C.2     1  UNL1       -0.0172
     19 C          65.5796   96.8558   -6.1783 C.3     1  UNL1        0.1037
     20 C          65.0044   95.9196   -5.1572 C.2     1  UNL1        0.2178
     21 N          64.1728   96.1587   -3.9319 N.2     1  UNL1       -0.0347
     22 C          63.6756   94.9513   -0.7097 C.ar    1  UNL1        0.0076
     23 C          64.4259   93.9166    0.0756 C.ar    1  UNL1       -0.0001
     24 C          65.0085   94.2666    1.4128 C.ar    1  UNL1       -0.0043
     25 C          64.8409   95.6512    1.9648 C.ar    1  UNL1       -0.0218
     26 C          65.4235   96.0012    3.3019 C.3     1  UNL1        0.0310
     27 C          64.0907   96.6859    1.1796 C.ar    1  UNL1       -0.0043
     28 C          63.5080   96.3359   -0.1577 C.ar    1  UNL1       -0.0001
     29 N          60.0194   93.7349    2.9123 N.pl3   1  UNL1       -0.3339
     30 H          60.2875   94.6122    3.2696 H       1  UNL1        0.1468
     31 N          59.2893   90.2916    5.7160 N.3     1  UNL1       -0.2726
     32 C          60.6678   90.5441    5.1813 C.3     1  UNL1        0.0738
     33 C          60.9112   91.6919    4.2467 C.3     1  UNL1        0.0368
     34 C          59.7761   92.5871    3.8469 C.3     1  UNL1        0.0718
     35 C          58.3975   92.3346    4.3816 C.3     1  UNL1        0.0368
     36 C          58.1542   91.1869    5.3162 C.3     1  UNL1        0.0738
     37 C          59.9121   88.9668    7.8624 C.3     1  UNL1        0.0188
     38 C          59.0460   89.1439    6.6506 C.3     1  UNL1        0.0721
@<TRIPOS>BOND
     1    37    38    1
     2    38    31    1
     3    31    32    1
     4    32    33    1
     5    33    34    1
     6    34    29    1
     7    29     1    1
     8     1     2   ar
     9     2     3   ar
    10     3     4   ar
    11     4     5   ar
    12     5     6   ar
    13     5     7    1
    14     7     8    2
    15     8    22    1
    16    22    23   ar
    17    23    24   ar
    18    24    25   ar
    19    25    26    1
    20    25    27   ar
    21    27    28   ar
    22     8    13    1
    23    13    14    2
    24    14    15    1
    25    15    16    2
    26    16    17    1
    27    17    18    2
    28    18    19    1
    29    19    20    1
    30    20    21    2
    31     7     9    1
    32     9    10    2
    33     9    11   am
    34    34    35    1
    35    35    36    1
    36    36    31    1
    37     6     1   ar
    38    28    22   ar
    39    21    13    1
    40    11     4    1
    41    20    15    1
    42    29    30    1
    43    11    12    1
@<TRIPOS>MOLECULE
*****
 38 43 0 0 0
SMALL
GASTEIGER

@<TRIPOS>ATOM
      1 C          62.6547   89.6582   12.6821 C.ar    1  UNL1        0.0447
      2 C          62.4835   90.3246   11.3493 C.ar    1  UNL1        0.0156
      3 C          62.3777   89.4949   10.1041 C.ar    1  UNL1        0.0159
      4 C          62.4431   87.9989   10.1918 C.ar    1  UNL1        0.0507
      5 C          62.6143   87.3325   11.5247 C.ar    1  UNL1        0.0193
      6 C          62.7201   88.1622   12.7698 C.ar    1  UNL1        0.0157
      7 C          62.6450   85.8497   11.3010 C.2     1  UNL1        0.0623
      8 C          62.8006   84.8010   12.3621 C.2     1  UNL1        0.0928
      9 C          62.4928   85.5995    9.8298 C.2     1  UNL1        0.2498
     10 O          62.4695   84.2568    9.1615 O.2     1  UNL1       -0.2698
     11 N          62.3680   86.9278    9.1443 N.am    1  UNL1       -0.2804
     12 H          62.2564   87.0715    8.1767 H       1  UNL1        0.1552
     13 C          62.8134   83.3491   11.9856 C.2     1  UNL1        0.3754
     14 N          63.1912   82.7888   10.6464 N.2     1  UNL1       -0.0308
     15 C          63.0619   81.2959   10.7153 C.2     1  UNL1        0.2321
     16 C          63.3018   80.2197    9.6984 C.2     1  UNL1        0.0498
     17 C          63.0840   78.7811   10.0632 C.2     1  UNL1       -0.0002
     18 C          62.6264   78.4188   11.4449 C.2     1  UNL1       -0.0172
     19 C          62.3865   79.4951   12.4619 C.3     1  UNL1        0.1037
     20 C          62.6042   80.9336   12.0971 C.2     1  UNL1        0.2178
     21 N          62.4506   82.2025   12.8822 N.2     1  UNL1       -0.0347
     22 C          62.9434   85.2042   13.7998 C.ar    1  UNL1        0.0076
     23 C          64.1534   85.9694   14.2475 C.ar    1  UNL1       -0.0001
     24 C          64.2964   86.3726   15.6852 C.ar    1  UNL1       -0.0043
     25 C          63.2293   86.0106   16.6753 C.ar    1  UNL1       -0.0218
     26 C          63.3721   86.4138   18.1130 C.3     1  UNL1        0.0310
     27 C          62.0193   85.2454   16.2277 C.ar    1  UNL1       -0.0043
     28 C          61.8764   84.8421   14.7899 C.ar    1  UNL1       -0.0001
     29 N          62.7605   90.4878   13.9274 N.pl3   1  UNL1       -0.3339
     30 H          61.9887   90.5665   14.5335 H       1  UNL1        0.1468
     31 N          66.6057   92.6167   14.8928 N.3     1  UNL1       -0.2726
     32 C          66.2649   92.2929   13.4684 C.3     1  UNL1        0.0738
     33 C          64.9832   91.5832   13.1465 C.3     1  UNL1        0.0368
     34 C          64.0422   91.1974   14.2492 C.3     1  UNL1        0.0718
     35 C          64.3830   91.5213   15.6736 C.3     1  UNL1        0.0368
     36 C          65.6647   92.2309   15.9954 C.3     1  UNL1        0.0738
     37 C          68.9249   92.6530   16.0633 C.3     1  UNL1        0.0188
     38 C          67.8874   93.3263   15.2145 C.3     1  UNL1        0.0721
@<TRIPOS>BOND
     1    37    38    1
     2    38    31    1
     3    31    32    1
     4    32    33    1
     5    33    34    1
     6    34    29    1
     7    29     1    1
     8     1     2   ar
     9     2     3   ar
    10     3     4   ar
    11     4     5   ar
    12     5     6   ar
    13     5     7    1
    14     7     8    2
    15     8    22    1
    16    22    23   ar
    17    23    24   ar
    18    24    25   ar
    19    25    26    1
    20    25    27   ar
    21    27    28   ar
    22     8    13    1
    23    13    14    2
    24    14    15    1
    25    15    16    2
    26    16    17    1
    27    17    18    2
    28    18    19    1
    29    19    20    1
    30    20    21    2
    31     7     9    1
    32     9    10    2
    33     9    11   am
    34    34    35    1
    35    35    36    1
    36    36    31    1
    37     6     1   ar
    38    28    22   ar
    39    21    13    1
    40    11     4    1
    41    20    15    1
    42    29    30    1
    43    11    12    1
@<TRIPOS>MOLECULE
*****
 38 43 0 0 0
SMALL
GASTEIGER

@<TRIPOS>ATOM
      1 C          62.0735   95.6984   -3.8293 C.ar    1  UNL1        0.0447
      2 C          61.0129   95.3666   -4.8367 C.ar    1  UNL1        0.0156
      3 C          59.8405   94.5193   -4.4399 C.ar    1  UNL1        0.0159
      4 C          59.7286   94.0039   -3.0357 C.ar    1  UNL1        0.0507
      5 C          60.7892   94.3357   -2.0283 C.ar    1  UNL1        0.0193
      6 C          61.9616   95.1830   -2.4251 C.ar    1  UNL1        0.0157
      7 C          60.4117   93.6900   -0.7281 C.2     1  UNL1        0.0623
      8 C          61.1913   93.7625    0.5513 C.2     1  UNL1        0.0928
      9 C          59.1178   92.9590   -0.9320 C.2     1  UNL1        0.2498
     10 O          58.3763   92.1722    0.1079 O.2     1  UNL1       -0.2698
     11 N          58.6956   93.1530   -2.3582 N.am    1  UNL1       -0.2804
     12 H          57.8832   92.7863   -2.7762 H       1  UNL1        0.1552
     13 C          60.6866   93.0619    1.7779 C.2     1  UNL1        0.3754
     14 N          59.2633   93.0262    2.2500 N.2     1  UNL1       -0.0308
     15 C          59.2135   92.2162    3.5116 C.2     1  UNL1        0.2321
     16 C          58.0801   91.8419    4.4201 C.2     1  UNL1        0.0498
     17 C          58.3393   91.0028    5.6360 C.2     1  UNL1       -0.0002
     18 C          59.7319   90.5379    5.9436 C.2     1  UNL1       -0.0172
     19 C          60.8654   90.9122    5.0351 C.3     1  UNL1        0.1037
     20 C          60.6062   91.7514    3.8191 C.2     1  UNL1        0.2178
     21 N          61.5166   92.2740    2.7476 N.2     1  UNL1       -0.0347
     22 C          62.4756   94.5355    0.6043 C.ar    1  UNL1        0.0076
     23 C          62.4694   95.9714    1.0383 C.ar    1  UNL1       -0.0001
     24 C          63.7537   96.7445    1.0913 C.ar    1  UNL1       -0.0043
     25 C          65.0443   96.0818    0.7104 C.ar    1  UNL1       -0.0218
     26 C          66.3286   96.8549    0.7633 C.3     1  UNL1        0.0310
     27 C          65.0506   94.6460    0.2764 C.ar    1  UNL1       -0.0043
     28 C          63.7662   93.8728    0.2234 C.ar    1  UNL1       -0.0001
     29 N          63.2460   96.5458   -4.2260 N.pl3   1  UNL1       -0.3339
     30 H          63.2915   97.4873   -3.9419 H       1  UNL1        0.1468
     31 N          66.5554   94.7842   -6.7149 N.3     1  UNL1       -0.2726
     32 C          66.6952   96.1675   -6.1521 C.3     1  UNL1        0.0738
     33 C          65.5921   96.7547   -5.3224 C.3     1  UNL1        0.0368
     34 C          64.3491   95.9586   -5.0556 C.3     1  UNL1        0.0718
     35 C          64.2093   94.5752   -5.6185 C.3     1  UNL1        0.0368
     36 C          65.3124   93.9880   -6.4481 C.3     1  UNL1        0.0738
     37 C          69.0281   94.8080   -7.5119 C.3     1  UNL1        0.0188
     38 C          67.6585   94.1970   -7.5445 C.3     1  UNL1        0.0721
@<TRIPOS>BOND
     1    37    38    1
     2    38    31    1
     3    31    32    1
     4    32    33    1
     5    33    34    1
     6    34    29    1
     7    29     1    1
     8     1     2   ar
     9     2     3   ar
    10     3     4   ar
    11     4     5   ar
    12     5     6   ar
    13     5     7    1
    14     7     8    2
    15     8    22    1
    16    22    23   ar
    17    23    24   ar
    18    24    25   ar
    19    25    26    1
    20    25    27   ar
    21    27    28   ar
    22     8    13    1
    23    13    14    2
    24    14    15    1
    25    15    16    2
    26    16    17    1
    27    17    18    2
    28    18    19    1
    29    19    20    1
    30    20    21    2
    31     7     9    1
    32     9    10    2
    33     9    11   am
    34    34    35    1
    35    35    36    1
    36    36    31    1
    37     6     1   ar
    38    28    22   ar
    39    21    13    1
    40    11     4    1
    41    20    15    1
    42    29    30    1
    43    11    12    1
