@<TRIPOS>MOLECULE
*****
 29 33 0 0 0
SMALL
GASTEIGER

@<TRIPOS>ATOM
      1 C          61.8747   89.0598   10.3553 C.ar    1  UNL1        0.0741
      2 C          60.9521   89.5026    9.2587 C.ar    1  UNL1        0.0062
      3 C          60.0449   88.5094    8.5950 C.ar    1  UNL1        0.0034
      4 C          60.0605   87.0733    9.0279 C.ar    1  UNL1        0.0392
      5 C          60.9831   86.6305   10.1245 C.ar    1  UNL1        0.1662
      6 O          61.2180   85.2918   10.7593 O.2     1  UNL1       -0.4237
      7 C          62.2703   85.4578   11.8153 C.ar    1  UNL1        0.2925
      8 N          62.6858   86.8989   11.8332 N.ar    1  UNL1       -0.1945
      9 C          61.8902   87.6237   10.7882 C.ar    1  UNL1        0.1245
     10 N          62.8119   84.3729   12.6984 N.pl3   1  UNL1       -0.2585
     11 C          63.4069   84.7180   14.0314 C.3     1  UNL1        0.1272
     12 C          63.9485   83.6332   14.9144 C.3     1  UNL1        0.1637
     13 O          63.8952   82.2032   14.4644 O.3     1  UNL1       -0.3501
     14 C          63.3002   81.8582   13.1314 C.3     1  UNL1        0.1637
     15 C          62.7586   82.9430   12.2484 C.3     1  UNL1        0.1272
     16 N          63.3514   89.7592   12.3753 N.am    1  UNL1       -0.3024
     17 C          62.7819   90.0531   11.0191 C.2     1  UNL1        0.2474
     18 O          63.1195   91.3401   10.3267 O.2     1  UNL1       -0.2701
     19 H          63.1298   88.9144   12.8297 H       1  UNL1        0.1497
     20 C          64.6754   91.1417   13.5287 C.3     1  UNL1        0.0896
     21 N          65.1658   91.7456   13.7028 N.3     1  UNL1       -0.2740
     22 C          65.4671   91.6244   15.1672 C.3     1  UNL1        0.0591
     23 C          66.3742   92.6176   15.8310 C.3     1  UNL1        0.0161
     24 C          66.9800   93.7320   15.0304 C.3     1  UNL1        0.0028
     25 C          66.6787   93.8532   13.5659 C.3     1  UNL1        0.0161
     26 C          65.7716   92.8600   12.9022 C.3     1  UNL1        0.0591
     27 C          64.8644   91.8669   12.2384 C.3     1  UNL1        0.0356
     28 C          64.2586   90.7524   13.0391 C.3     1  UNL1        0.0745
     29 C          64.5599   90.6312   14.5035 C.3     1  UNL1        0.0356
@<TRIPOS>BOND
     1    20    21    1
     2    21    22    1
     3    22    23    1
     4    23    24    1
     5    24    25    1
     6    26    25    1
     7    26    27    1
     8    27    28    1
     9    28    16    1
    10    16    17   am
    11    17    18    2
    12    17     1    1
    13     1     2   ar
    14     2     3   ar
    15     3     4   ar
    16     4     5   ar
    17     5     6   ar
    18     6     7   ar
    19     7    10    1
    20    10    11    1
    21    11    12    1
    22    12    13    1
    23    13    14    1
    24    14    15    1
    25     7     8   ar
    26     8     9   ar
    27    28    29    1
    28    26    21    1
    29     9     1   ar
    30    29    22    1
    31     9     5   ar
    32    15    10    1
    33    16    19    1
@<TRIPOS>MOLECULE
*****
 29 33 0 0 0
SMALL
GASTEIGER

@<TRIPOS>ATOM
      1 C          64.1919   90.3276   14.5958 C.ar    1  UNL1        0.0741
      2 C          63.9584   91.0680   15.8792 C.ar    1  UNL1        0.0062
      3 C          63.4766   90.3307   17.0934 C.ar    1  UNL1        0.0034
      4 C          63.2284   88.8530   17.0241 C.ar    1  UNL1        0.0392
      5 C          63.4619   88.1126   15.7406 C.ar    1  UNL1        0.1662
      6 O          63.3050   86.6669   15.3730 O.2     1  UNL1       -0.4237
      7 C          63.6898   86.5107   13.9316 C.ar    1  UNL1        0.2925
      8 N          64.0845   87.8599   13.4084 N.ar    1  UNL1       -0.1945
      9 C          63.9437   88.8499   14.5265 C.ar    1  UNL1        0.1245
     10 N          63.6813   85.2300   13.1506 N.pl3   1  UNL1       -0.2585
     11 C          62.8370   85.1097   11.9166 C.3     1  UNL1        0.1272
     12 C          62.8286   83.8291   11.1357 C.3     1  UNL1        0.1637
     13 O          63.6644   82.6688   11.5887 O.3     1  UNL1       -0.3501
     14 C          64.5087   82.7892   12.8226 C.3     1  UNL1        0.1637
     15 C          64.5172   84.0698   13.6035 C.3     1  UNL1        0.1272
     16 N          65.8890   91.9398   13.4685 N.am    1  UNL1       -0.3024
     17 C          64.6737   91.0650   13.3815 C.2     1  UNL1        0.2474
     18 O          63.9401   90.9274   12.0804 O.2     1  UNL1       -0.2701
     19 H          66.3705   92.0301   14.3225 H       1  UNL1        0.1497
     20 C          66.5127   93.1931   11.7263 C.3     1  UNL1        0.0896
     21 N          66.8527   93.4145   11.0401 N.3     1  UNL1       -0.2740
     22 C          66.4773   94.8526   10.8379 C.3     1  UNL1        0.0591
     23 C          66.9591   95.5899    9.6238 C.3     1  UNL1        0.0161
     24 C          67.8162   94.8891    8.6118 C.3     1  UNL1        0.0028
     25 C          68.1915   93.4509    8.8140 C.3     1  UNL1        0.0161
     26 C          67.7097   92.7136   10.0281 C.3     1  UNL1        0.0591
     27 C          67.2280   91.9763   11.2423 C.3     1  UNL1        0.0356
     28 C          66.3708   92.6772   12.2543 C.3     1  UNL1        0.0745
     29 C          65.9955   94.1153   12.0522 C.3     1  UNL1        0.0356
@<TRIPOS>BOND
     1    20    21    1
     2    21    22    1
     3    22    23    1
     4    23    24    1
     5    24    25    1
     6    26    25    1
     7    26    27    1
     8    27    28    1
     9    28    16    1
    10    16    17   am
    11    17    18    2
    12    17     1    1
    13     1     2   ar
    14     2     3   ar
    15     3     4   ar
    16     4     5   ar
    17     5     6   ar
    18     6     7   ar
    19     7    10    1
    20    10    11    1
    21    11    12    1
    22    12    13    1
    23    13    14    1
    24    14    15    1
    25     7     8   ar
    26     8     9   ar
    27    28    29    1
    28    26    21    1
    29     9     1   ar
    30    29    22    1
    31     9     5   ar
    32    15    10    1
    33    16    19    1
@<TRIPOS>MOLECULE
*****
 29 33 0 0 0
SMALL
GASTEIGER

@<TRIPOS>ATOM
      1 C          63.3824   86.2546   15.9099 C.ar    1  UNL1        0.0741
      2 C          63.0414   86.0154   17.3509 C.ar    1  UNL1        0.0062
      3 C          62.8659   87.1776   18.2828 C.ar    1  UNL1        0.0034
      4 C          63.0312   88.5788   17.7738 C.ar    1  UNL1        0.0392
      5 C          63.3722   88.8180   16.3328 C.ar    1  UNL1        0.1662
      6 O          63.5959   90.0778   15.5500 O.2     1  UNL1       -0.4237
      7 C          63.9098   89.6943   14.1342 C.ar    1  UNL1        0.2925
      8 N          63.8800   88.1974   14.0420 N.ar    1  UNL1       -0.1945
      9 C          63.5478   87.6558   15.4008 C.ar    1  UNL1        0.1245
     10 N          64.2021   90.6414   13.0083 N.pl3   1  UNL1       -0.2585
     11 C          65.2892   91.6648   13.1523 C.3     1  UNL1        0.1272
     12 C          65.5815   92.6119   12.0264 C.3     1  UNL1        0.1637
     13 O          64.7867   92.5355   10.7566 O.3     1  UNL1       -0.3501
     14 C          63.6996   91.5121   10.6126 C.3     1  UNL1        0.1637
     15 C          63.4073   90.5650   11.7385 C.3     1  UNL1        0.1272
     16 N          62.3561   84.3725   14.4421 N.am    1  UNL1       -0.3024
     17 C          63.5580   85.0924   14.9778 C.2     1  UNL1        0.2474
     18 O          64.9355   84.6503   14.5816 O.2     1  UNL1       -0.2701
     19 H          61.4520   84.6627   14.7022 H       1  UNL1        0.1497
     20 C          62.5602   82.5270   13.1983 C.3     1  UNL1        0.0896
     21 N          62.7072   82.0482   12.5780 N.3     1  UNL1       -0.2740
     22 C          62.4148   80.6556   13.0524 C.3     1  UNL1        0.0591
     23 C          62.5904   79.4935   12.1204 C.3     1  UNL1        0.0161
     24 C          63.0583   79.7240   10.7140 C.3     1  UNL1        0.0028
     25 C          63.3507   81.1167   10.2397 C.3     1  UNL1        0.0161
     26 C          63.1751   82.2788   11.1717 C.3     1  UNL1        0.0591
     27 C          62.9996   83.4409   12.1037 C.3     1  UNL1        0.0356
     28 C          62.5316   83.2104   13.5101 C.3     1  UNL1        0.0745
     29 C          62.2393   81.8177   13.9844 C.3     1  UNL1        0.0356
@<TRIPOS>BOND
     1    20    21    1
     2    21    22    1
     3    22    23    1
     4    23    24    1
     5    24    25    1
     6    26    25    1
     7    26    27    1
     8    27    28    1
     9    28    16    1
    10    16    17   am
    11    17    18    2
    12    17     1    1
    13     1     2   ar
    14     2     3   ar
    15     3     4   ar
    16     4     5   ar
    17     5     6   ar
    18     6     7   ar
    19     7    10    1
    20    10    11    1
    21    11    12    1
    22    12    13    1
    23    13    14    1
    24    14    15    1
    25     7     8   ar
    26     8     9   ar
    27    28    29    1
    28    26    21    1
    29     9     1   ar
    30    29    22    1
    31     9     5   ar
    32    15    10    1
    33    16    19    1
@<TRIPOS>MOLECULE
*****
 29 33 0 0 0
SMALL
GASTEIGER

@<TRIPOS>ATOM
      1 C          63.7837   85.3684   13.4336 C.ar    1  UNL1        0.0741
      2 C          64.2427   84.0265   13.9222 C.ar    1  UNL1        0.0062
      3 C          63.8223   82.7813   13.1993 C.ar    1  UNL1        0.0034
      4 C          62.9430   82.8779   11.9879 C.ar    1  UNL1        0.0392
      5 C          62.4841   84.2197   11.4994 C.ar    1  UNL1        0.1662
      6 O          61.6194   84.6248   10.3426 O.2     1  UNL1       -0.4237
      7 C          61.5053   86.1205   10.3505 C.ar    1  UNL1        0.2925
      8 N          62.2995   86.6398   11.5122 N.ar    1  UNL1       -0.1945
      9 C          62.9044   85.4650   12.2222 C.ar    1  UNL1        0.1245
     10 N          60.7327   86.9510    9.3690 N.pl3   1  UNL1       -0.2585
     11 C          59.8805   86.2847    8.3298 C.3     1  UNL1        0.1272
     12 C          59.1079   87.1152    7.3483 C.3     1  UNL1        0.1637
     13 O          59.1875   88.6120    7.4061 O.3     1  UNL1       -0.3501
     14 C          60.0396   89.2783    8.4453 C.3     1  UNL1        0.1637
     15 C          60.8122   88.4478    9.4267 C.3     1  UNL1        0.1272
     16 N          63.7032   87.9516   13.6992 N.am    1  UNL1       -0.3024
     17 C          64.2041   86.6138   14.1565 C.2     1  UNL1        0.2474
     18 O          65.1254   86.5212   15.3365 O.2     1  UNL1       -0.2701
     19 H          63.0985   88.0124   12.9246 H       1  UNL1        0.1497
     20 C          64.4647   89.8302   14.6403 C.3     1  UNL1        0.0896
     21 N          64.5438   90.4423   15.1448 N.3     1  UNL1       -0.2740
     22 C          65.6806   91.2675   14.6185 C.3     1  UNL1        0.0591
     23 C          66.1009   92.5128   15.3413 C.3     1  UNL1        0.0161
     24 C          65.3845   92.9330   16.5903 C.3     1  UNL1        0.0028
     25 C          64.2478   92.1078   17.1166 C.3     1  UNL1        0.0161
     26 C          63.8274   90.8625   16.3938 C.3     1  UNL1        0.0591
     27 C          63.4071   89.6172   15.6710 C.3     1  UNL1        0.0356
     28 C          64.1235   89.1970   14.4219 C.3     1  UNL1        0.0745
     29 C          65.2603   90.0221   13.8957 C.3     1  UNL1        0.0356
@<TRIPOS>BOND
     1    20    21    1
     2    21    22    1
     3    22    23    1
     4    23    24    1
     5    24    25    1
     6    26    25    1
     7    26    27    1
     8    27    28    1
     9    28    16    1
    10    16    17   am
    11    17    18    2
    12    17     1    1
    13     1     2   ar
    14     2     3   ar
    15     3     4   ar
    16     4     5   ar
    17     5     6   ar
    18     6     7   ar
    19     7    10    1
    20    10    11    1
    21    11    12    1
    22    12    13    1
    23    13    14    1
    24    14    15    1
    25     7     8   ar
    26     8     9   ar
    27    28    29    1
    28    26    21    1
    29     9     1   ar
    30    29    22    1
    31     9     5   ar
    32    15    10    1
    33    16    19    1
@<TRIPOS>MOLECULE
*****
 29 33 0 0 0
SMALL
GASTEIGER

@<TRIPOS>ATOM
      1 C          63.5972   88.0912   13.1174 C.ar    1  UNL1        0.0741
      2 C          64.4035   88.9723   14.0248 C.ar    1  UNL1        0.0062
      3 C          64.4398   90.4539   13.7936 C.ar    1  UNL1        0.0034
      4 C          63.6698   91.0544   12.6550 C.ar    1  UNL1        0.0392
      5 C          62.8635   90.1733   11.7475 C.ar    1  UNL1        0.1662
      6 O          62.0092   90.4770   10.5526 O.2     1  UNL1       -0.4237
      7 C          61.4449   89.1831   10.0453 C.ar    1  UNL1        0.2925
      8 N          61.9504   88.0797   10.9267 N.ar    1  UNL1       -0.1945
      9 C          62.8272   88.6917   11.9788 C.ar    1  UNL1        0.1245
     10 N          60.5348   89.0211    8.8639 N.pl3   1  UNL1       -0.2585
     11 C          59.8258   87.7190    8.6363 C.3     1  UNL1        0.1272
     12 C          58.9157   87.5570    7.4550 C.3     1  UNL1        0.1637
     13 O          58.7147   88.6972    6.5013 O.3     1  UNL1       -0.3501
     14 C          59.4236   89.9993    6.7289 C.3     1  UNL1        0.1637
     15 C          60.3337   90.1612    7.9102 C.3     1  UNL1        0.1272
     16 N          62.7008   85.7364   12.4837 N.am    1  UNL1       -0.3024
     17 C          63.5608   86.6095   13.3486 C.2     1  UNL1        0.2474
     18 O          64.3843   86.0011   14.4447 O.2     1  UNL1       -0.2701
     19 H          62.1603   86.1358   11.7643 H       1  UNL1        0.1497
     20 C          62.7083   83.5075   12.6464 C.3     1  UNL1        0.0896
     21 N          62.6280   82.7731   12.9461 N.3     1  UNL1       -0.2740
     22 C          63.0239   81.8326   11.8467 C.3     1  UNL1        0.0591
     23 C          62.9875   80.3510   12.0778 C.3     1  UNL1        0.0161
     24 C          62.5553   79.8099   13.4084 C.3     1  UNL1        0.0028
     25 C          62.1595   80.7505   14.5078 C.3     1  UNL1        0.0161
     26 C          62.1958   82.2321   14.2766 C.3     1  UNL1        0.0591
     27 C          62.2322   83.7137   14.0455 C.3     1  UNL1        0.0356
     28 C          62.6645   84.2548   12.7148 C.3     1  UNL1        0.0745
     29 C          63.0603   83.3143   11.6154 C.3     1  UNL1        0.0356
@<TRIPOS>BOND
     1    20    21    1
     2    21    22    1
     3    22    23    1
     4    23    24    1
     5    24    25    1
     6    26    25    1
     7    26    27    1
     8    27    28    1
     9    28    16    1
    10    16    17   am
    11    17    18    2
    12    17     1    1
    13     1     2   ar
    14     2     3   ar
    15     3     4   ar
    16     4     5   ar
    17     5     6   ar
    18     6     7   ar
    19     7    10    1
    20    10    11    1
    21    11    12    1
    22    12    13    1
    23    13    14    1
    24    14    15    1
    25     7     8   ar
    26     8     9   ar
    27    28    29    1
    28    26    21    1
    29     9     1   ar
    30    29    22    1
    31     9     5   ar
    32    15    10    1
    33    16    19    1
@<TRIPOS>MOLECULE
*****
 29 33 0 0 0
SMALL
GASTEIGER

@<TRIPOS>ATOM
      1 C          64.1110   91.1657   11.9516 C.ar    1  UNL1        0.0741
      2 C          64.8927   92.4174   11.6833 C.ar    1  UNL1        0.0062
      3 C          65.7635   93.0020   12.7555 C.ar    1  UNL1        0.0034
      4 C          65.8526   92.3350   14.0961 C.ar    1  UNL1        0.0392
      5 C          65.0709   91.0832   14.3644 C.ar    1  UNL1        0.1662
      6 O          64.9597   90.2103   15.5791 O.2     1  UNL1       -0.4237
      7 C          64.0201   89.0861   15.2575 C.ar    1  UNL1        0.2925
      8 N          63.5506   89.2642   13.8441 N.ar    1  UNL1       -0.1945
      9 C          64.2001   90.4986   13.2921 C.ar    1  UNL1        0.1245
     10 N          63.6202   87.9782   16.1864 N.pl3   1  UNL1       -0.2585
     11 C          63.8404   86.5490   15.7879 C.3     1  UNL1        0.1272
     12 C          63.4405   85.4412   16.7167 C.3     1  UNL1        0.1637
     13 O          62.8204   85.7626   18.0442 O.3     1  UNL1       -0.3501
     14 C          62.6002   87.1918   18.4428 C.3     1  UNL1        0.1637
     15 C          63.0001   88.2996   17.5139 C.3     1  UNL1        0.1272
     16 N          62.5304   89.2807   11.1155 N.am    1  UNL1       -0.3024
     17 C          63.2401   90.5809   10.8793 C.2     1  UNL1        0.2474
     18 O          63.0789   91.2964    9.5708 O.2     1  UNL1       -0.2701
     19 H          62.6362   88.8112   11.9743 H       1  UNL1        0.1497
     20 C          61.1492   88.5829    9.5030 C.3     1  UNL1        0.0896
     21 N          60.7887   88.1112    8.9710 N.3     1  UNL1       -0.2740
     22 C          59.7573   88.9645    8.2942 C.3     1  UNL1        0.0591
     23 C          58.8864   88.3797    7.2220 C.3     1  UNL1        0.0161
     24 C          59.0470   86.9418    6.8266 C.3     1  UNL1        0.0028
     25 C          60.0784   86.0885    7.5035 C.3     1  UNL1        0.0161
     26 C          60.9492   86.6732    8.5757 C.3     1  UNL1        0.0591
     27 C          61.8201   87.2579    9.6479 C.3     1  UNL1        0.0356
     28 C          61.6595   88.6960   10.0433 C.3     1  UNL1        0.0745
     29 C          60.6281   89.5493    9.3664 C.3     1  UNL1        0.0356
@<TRIPOS>BOND
     1    20    21    1
     2    21    22    1
     3    22    23    1
     4    23    24    1
     5    24    25    1
     6    26    25    1
     7    26    27    1
     8    27    28    1
     9    28    16    1
    10    16    17   am
    11    17    18    2
    12    17     1    1
    13     1     2   ar
    14     2     3   ar
    15     3     4   ar
    16     4     5   ar
    17     5     6   ar
    18     6     7   ar
    19     7    10    1
    20    10    11    1
    21    11    12    1
    22    12    13    1
    23    13    14    1
    24    14    15    1
    25     7     8   ar
    26     8     9   ar
    27    28    29    1
    28    26    21    1
    29     9     1   ar
    30    29    22    1
    31     9     5   ar
    32    15    10    1
    33    16    19    1
