@<TRIPOS>MOLECULE
*****
 27 29 0 0 0
SMALL
GASTEIGER

@<TRIPOS>ATOM
      1 C          63.6589   90.0248   13.2047 C.3     1  UNL1        0.1751
      2 C          64.7302   91.0603   13.0315 C.ar    1  UNL1        0.0089
      3 C          65.8606   91.4929   13.9175 C.ar    1  UNL1       -0.0021
      4 C          66.7927   92.5786   13.4678 C.ar    1  UNL1       -0.0003
      5 C          66.5944   93.2317   12.1321 C.ar    1  UNL1        0.0001
      6 C          65.4641   92.7991   11.2461 C.ar    1  UNL1        0.0043
      7 C          64.5319   91.7134   11.6958 C.ar    1  UNL1        0.0516
      8 C          63.3381   91.0815   11.0435 C.2     1  UNL1        0.2493
      9 O          62.7816   91.4318    9.6953 O.2     1  UNL1       -0.2699
     10 N          62.7985   90.0379   11.9761 N.am    1  UNL1       -0.2658
     11 N          64.1081   87.7708   14.4165 N.am    1  UNL1       -0.3027
     12 C          63.4795   89.1327   14.3972 C.2     1  UNL1        0.2449
     13 O          62.6716   89.6024   15.5705 O.2     1  UNL1       -0.2729
     14 H          64.6383   87.4625   13.6464 H       1  UNL1        0.1495
     15 C          63.9287   86.8788   15.6090 C.3     1  UNL1        0.0894
     16 C          65.1149   84.8643   14.4758 C.3     1  UNL1        0.0018
     17 C          64.1331   85.3988   15.4759 C.3     1  UNL1        0.0212
     18 C          61.6077   89.1612   11.7242 C.3     1  UNL1        0.0987
     19 C          61.5055   88.3841   10.4453 C.3     1  UNL1        0.0422
     20 C          60.8003   88.9771    9.2616 C.3     1  UNL1        0.0065
     21 C          62.1086   87.0140   10.3500 C.ar    1  UNL1       -0.0208
     22 C          62.4822   86.4504    9.0111 C.ar    1  UNL1       -0.0034
     23 C          63.0853   85.0803    8.9159 C.ar    1  UNL1        0.0111
     24 C          63.3147   84.2737   10.1595 C.ar    1  UNL1        0.0577
     25 CL         63.9177   82.9036   10.0643 Cl      1  UNL1       -0.0822
     26 C          62.9410   84.8372   11.4986 C.ar    1  UNL1        0.0111
     27 C          62.3380   86.2074   11.5938 C.ar    1  UNL1       -0.0034
@<TRIPOS>BOND
     1    16    17    1
     2    17    15    1
     3    15    11    1
     4    11    12   am
     5    12    13    2
     6    12     1    1
     7     1     2    1
     8     2     3   ar
     9     3     4   ar
    10     4     5   ar
    11     5     6   ar
    12     6     7   ar
    13     7     8    1
    14     8     9    2
    15     8    10   am
    16    10    18    1
    17    18    19    1
    18    19    20    1
    19    19    21    1
    20    21    22   ar
    21    22    23   ar
    22    23    24   ar
    23    24    25    1
    24    24    26   ar
    25    26    27   ar
    26    10     1    1
    27    27    21   ar
    28     7     2   ar
    29    11    14    1
@<TRIPOS>MOLECULE
*****
 27 29 0 0 0
SMALL
GASTEIGER

@<TRIPOS>ATOM
      1 C          63.7209   90.8706   13.4629 C.3     1  UNL1        0.1751
      2 C          64.7592   91.8315   12.9644 C.ar    1  UNL1        0.0089
      3 C          65.8387   92.5978   13.6698 C.ar    1  UNL1       -0.0021
      4 C          66.7466   93.5032   12.8916 C.ar    1  UNL1       -0.0003
      5 C          66.5751   93.6425   11.4079 C.ar    1  UNL1        0.0001
      6 C          65.4957   92.8762   10.7025 C.ar    1  UNL1        0.0043
      7 C          64.5877   91.9708   11.4808 C.ar    1  UNL1        0.0516
      8 C          63.4435   91.0958   11.0623 C.2     1  UNL1        0.2493
      9 O          62.9258   90.9300    9.6643 O.2     1  UNL1       -0.2699
     10 N          62.9077   90.4159   12.2873 N.am    1  UNL1       -0.2658
     11 N          63.4069   88.9824   15.2197 N.am    1  UNL1       -0.3027
     12 C          63.5295   90.4399   14.8869 C.2     1  UNL1        0.2449
     13 O          63.4605   91.4666   15.9782 O.2     1  UNL1       -0.2729
     14 H          63.4522   88.3084   14.5035 H       1  UNL1        0.1495
     15 C          63.2155   88.5517   16.6437 C.3     1  UNL1        0.0894
     16 C          62.7461   86.6801   18.3834 C.3     1  UNL1        0.0018
     17 C          62.8810   87.1234   16.9567 C.3     1  UNL1        0.0212
     18 C          61.7603   89.4507   12.3294 C.3     1  UNL1        0.0987
     19 C          60.7770   89.4048   11.1976 C.3     1  UNL1        0.0422
     20 C          59.6884   90.4330   11.1076 C.3     1  UNL1        0.0065
     21 C          60.8821   88.3307   10.1558 C.ar    1  UNL1       -0.0208
     22 C          62.0665   87.4104   10.1443 C.ar    1  UNL1       -0.0034
     23 C          62.1716   86.3363    9.1025 C.ar    1  UNL1        0.0111
     24 C          61.0923   86.1826    8.0723 C.ar    1  UNL1        0.0577
     25 CL         61.1974   85.1085    7.0305 Cl      1  UNL1       -0.0822
     26 C          59.9079   87.1029    8.0837 C.ar    1  UNL1        0.0111
     27 C          59.8027   88.1770    9.1255 C.ar    1  UNL1       -0.0034
@<TRIPOS>BOND
     1    16    17    1
     2    17    15    1
     3    15    11    1
     4    11    12   am
     5    12    13    2
     6    12     1    1
     7     1     2    1
     8     2     3   ar
     9     3     4   ar
    10     4     5   ar
    11     5     6   ar
    12     6     7   ar
    13     7     8    1
    14     8     9    2
    15     8    10   am
    16    10    18    1
    17    18    19    1
    18    19    20    1
    19    19    21    1
    20    21    22   ar
    21    22    23   ar
    22    23    24   ar
    23    24    25    1
    24    24    26   ar
    25    26    27   ar
    26    10     1    1
    27    27    21   ar
    28     7     2   ar
    29    11    14    1
@<TRIPOS>MOLECULE
*****
 27 29 0 0 0
SMALL
GASTEIGER

@<TRIPOS>ATOM
      1 C          63.7558   90.0288   13.2045 C.3     1  UNL1        0.1751
      2 C          64.7538   91.1178   12.9438 C.ar    1  UNL1        0.0089
      3 C          65.8998   91.6445   13.7557 C.ar    1  UNL1       -0.0021
      4 C          66.7421   92.7662   13.2246 C.ar    1  UNL1       -0.0003
      5 C          66.4384   93.3614   11.8816 C.ar    1  UNL1        0.0001
      6 C          65.2924   92.8347   11.0697 C.ar    1  UNL1        0.0043
      7 C          64.4501   91.7130   11.6008 C.ar    1  UNL1        0.0516
      8 C          63.2644   90.9917   11.0316 C.2     1  UNL1        0.2493
      9 O          62.6209   91.2636    9.7042 O.2     1  UNL1       -0.2699
     10 N          62.8353   89.9508   12.0227 N.am    1  UNL1       -0.2658
     11 N          63.1478   89.7301   15.7128 N.am    1  UNL1       -0.3027
     12 C          63.6899   89.1687   14.4317 C.2     1  UNL1        0.2449
     13 O          64.1660   87.7473   14.3779 O.2     1  UNL1       -0.2729
     14 H          62.8353   90.6630   15.7482 H       1  UNL1        0.1495
     15 C          63.0819   88.8700   16.9400 C.3     1  UNL1        0.0894
     16 C          62.6974   86.5301   18.0014 C.3     1  UNL1        0.0018
     17 C          62.5284   87.4787   16.8518 C.3     1  UNL1        0.0212
     18 C          61.6873   88.9991   11.8606 C.3     1  UNL1        0.0987
     19 C          61.5322   88.2210   10.5876 C.3     1  UNL1        0.0422
     20 C          60.7579   88.8032    9.4423 C.3     1  UNL1        0.0065
     21 C          62.1513   86.8607   10.4599 C.ar    1  UNL1       -0.0208
     22 C          62.4045   86.0338   11.6855 C.ar    1  UNL1       -0.0034
     23 C          63.0236   84.6735   11.5577 C.ar    1  UNL1        0.0111
     24 C          63.3895   84.1401   10.2044 C.ar    1  UNL1        0.0577
     25 CL         64.0086   82.7798   10.0766 Cl      1  UNL1       -0.0822
     26 C          63.1363   84.9670    8.9787 C.ar    1  UNL1        0.0111
     27 C          62.5172   86.3273    9.1064 C.ar    1  UNL1       -0.0034
@<TRIPOS>BOND
     1    16    17    1
     2    17    15    1
     3    15    11    1
     4    11    12   am
     5    12    13    2
     6    12     1    1
     7     1     2    1
     8     2     3   ar
     9     3     4   ar
    10     4     5   ar
    11     5     6   ar
    12     6     7   ar
    13     7     8    1
    14     8     9    2
    15     8    10   am
    16    10    18    1
    17    18    19    1
    18    19    20    1
    19    19    21    1
    20    21    22   ar
    21    22    23   ar
    22    23    24   ar
    23    24    25    1
    24    24    26   ar
    25    26    27   ar
    26    10     1    1
    27    27    21   ar
    28     7     2   ar
    29    11    14    1
@<TRIPOS>MOLECULE
*****
 27 29 0 0 0
SMALL
GASTEIGER

@<TRIPOS>ATOM
      1 C          63.4486   89.3390   13.0082 C.3     1  UNL1        0.1751
      2 C          62.8149   88.5660   11.8898 C.ar    1  UNL1        0.0089
      3 C          62.2817   87.1661   11.8134 C.ar    1  UNL1       -0.0021
      4 C          61.6924   86.6569   10.5314 C.ar    1  UNL1       -0.0003
      5 C          61.6365   87.5477    9.3258 C.ar    1  UNL1        0.0001
      6 C          62.1698   88.9476    9.4022 C.ar    1  UNL1        0.0043
      7 C          62.7590   89.4567   10.6842 C.ar    1  UNL1        0.0516
      8 C          63.3581   90.7802   11.0576 C.2     1  UNL1        0.2493
      9 O          63.5051   91.9680   10.1534 O.2     1  UNL1       -0.2699
     10 N          63.7843   90.7075   12.4940 N.am    1  UNL1       -0.2658
     11 N          62.8532   89.3122   15.5371 N.am    1  UNL1       -0.3027
     12 C          63.7021   88.8324   14.3972 C.2     1  UNL1        0.2449
     13 O          64.8043   87.8460   14.6463 O.2     1  UNL1       -0.2729
     14 H          62.1297   89.9596   15.3736 H       1  UNL1        0.1495
     15 C          63.1067   88.8056   16.9260 C.3     1  UNL1        0.0894
     16 C          62.7209   86.9464   18.6993 C.3     1  UNL1        0.0018
     17 C          62.8240   87.3719   17.2646 C.3     1  UNL1        0.0212
     18 C          64.4324   91.8097   13.2783 C.3     1  UNL1        0.0987
     19 C          65.8907   92.1064   13.0906 C.3     1  UNL1        0.0422
     20 C          66.9002   91.5392   14.0441 C.3     1  UNL1        0.0065
     21 C          66.3395   92.9704   11.9495 C.ar    1  UNL1       -0.0208
     22 C          67.0203   92.3530   10.7640 C.ar    1  UNL1       -0.0034
     23 C          67.4691   93.2170    9.6229 C.ar    1  UNL1        0.0111
     24 C          67.2371   94.6982    9.6673 C.ar    1  UNL1        0.0577
     25 CL         67.6859   95.5622    8.5262 Cl      1  UNL1       -0.0822
     26 C          66.5563   95.3156   10.8528 C.ar    1  UNL1        0.0111
     27 C          66.1075   94.4517   11.9939 C.ar    1  UNL1       -0.0034
@<TRIPOS>BOND
     1    16    17    1
     2    17    15    1
     3    15    11    1
     4    11    12   am
     5    12    13    2
     6    12     1    1
     7     1     2    1
     8     2     3   ar
     9     3     4   ar
    10     4     5   ar
    11     5     6   ar
    12     6     7   ar
    13     7     8    1
    14     8     9    2
    15     8    10   am
    16    10    18    1
    17    18    19    1
    18    19    20    1
    19    19    21    1
    20    21    22   ar
    21    22    23   ar
    22    23    24   ar
    23    24    25    1
    24    24    26   ar
    25    26    27   ar
    26    10     1    1
    27    27    21   ar
    28     7     2   ar
    29    11    14    1
@<TRIPOS>MOLECULE
*****
 27 29 0 0 0
SMALL
GASTEIGER

@<TRIPOS>ATOM
      1 C          63.8149   89.0066   13.4643 C.3     1  UNL1        0.1751
      2 C          63.0411   89.3773   12.2340 C.ar    1  UNL1        0.0089
      3 C          62.6614   90.7054   11.6493 C.ar    1  UNL1       -0.0021
      4 C          61.8658   90.7658   10.3791 C.ar    1  UNL1       -0.0003
      5 C          61.4498   89.4981    9.6937 C.ar    1  UNL1        0.0001
      6 C          61.8294   88.1700   10.2785 C.ar    1  UNL1        0.0043
      7 C          62.6250   88.1096   11.5486 C.ar    1  UNL1        0.0516
      8 C          63.1418   86.9554   12.3554 C.2     1  UNL1        0.2493
      9 O          62.9558   85.5020   12.0344 O.2     1  UNL1       -0.2699
     10 N          63.8772   87.5098   13.5393 N.am    1  UNL1       -0.2658
     11 N          65.5841   90.8197   14.0415 N.am    1  UNL1       -0.3027
     12 C          64.4203   89.9646   14.4471 C.2     1  UNL1        0.2449
     13 O          63.8619   90.0676   15.8354 O.2     1  UNL1       -0.2729
     14 H          65.9506   90.7521   13.1303 H       1  UNL1        0.1495
     15 C          66.1894   91.7777   15.0243 C.3     1  UNL1        0.0894
     16 C          68.2859   92.8427   16.1288 C.3     1  UNL1        0.0018
     17 C          67.6806   91.8875   15.1433 C.3     1  UNL1        0.0212
     18 C          64.5558   86.7081   14.6103 C.3     1  UNL1        0.0987
     19 C          63.7826   85.6789   15.3802 C.3     1  UNL1        0.0422
     20 C          63.2700   85.9980   16.7533 C.3     1  UNL1        0.0065
     21 C          63.5219   84.3305   14.7770 C.ar    1  UNL1       -0.0208
     22 C          64.5553   83.6891   13.8991 C.ar    1  UNL1       -0.0034
     23 C          64.2946   82.3407   13.2959 C.ar    1  UNL1        0.0111
     24 C          63.0006   81.6336   13.5706 C.ar    1  UNL1        0.0577
     25 CL         62.7400   80.2852   12.9675 Cl      1  UNL1       -0.0822
     26 C          61.9672   82.2750   14.4486 C.ar    1  UNL1        0.0111
     27 C          62.2278   83.6234   15.0518 C.ar    1  UNL1       -0.0034
@<TRIPOS>BOND
     1    16    17    1
     2    17    15    1
     3    15    11    1
     4    11    12   am
     5    12    13    2
     6    12     1    1
     7     1     2    1
     8     2     3   ar
     9     3     4   ar
    10     4     5   ar
    11     5     6   ar
    12     6     7   ar
    13     7     8    1
    14     8     9    2
    15     8    10   am
    16    10    18    1
    17    18    19    1
    18    19    20    1
    19    19    21    1
    20    21    22   ar
    21    22    23   ar
    22    23    24   ar
    23    24    25    1
    24    24    26   ar
    25    26    27   ar
    26    10     1    1
    27    27    21   ar
    28     7     2   ar
    29    11    14    1
@<TRIPOS>MOLECULE
*****
 27 29 0 0 0
SMALL
GASTEIGER

@<TRIPOS>ATOM
      1 C          62.6696   88.6792   11.6198 C.3     1  UNL1        0.1751
      2 C          62.8407   87.2309   11.9708 C.ar    1  UNL1        0.0089
      3 C          62.4002   85.9727   11.2832 C.ar    1  UNL1       -0.0021
      4 C          62.7228   84.6370   11.8846 C.ar    1  UNL1       -0.0003
      5 C          63.4860   84.5595   13.1736 C.ar    1  UNL1        0.0001
      6 C          63.9265   85.8177   13.8612 C.ar    1  UNL1        0.0043
      7 C          63.6038   87.1534   13.2598 C.ar    1  UNL1        0.0516
      8 C          63.9044   88.5538   13.7054 C.2     1  UNL1        0.2493
      9 O          64.6512   88.9428   14.9468 O.2     1  UNL1       -0.2699
     10 N          63.3270   89.4968   12.6919 N.am    1  UNL1       -0.2658
     11 N          60.6865   88.5835    9.9439 N.am    1  UNL1       -0.3027
     12 C          61.9649   89.2157   10.4092 C.2     1  UNL1        0.2449
     13 O          62.5383   90.3842    9.6639 O.2     1  UNL1       -0.2729
     14 H          60.3101   87.8165   10.4331 H       1  UNL1        0.1495
     15 C          59.9818   89.1200    8.7333 C.3     1  UNL1        0.0894
     16 C          59.5523   86.6950    7.9061 C.3     1  UNL1        0.0018
     17 C          59.3791   88.1752    7.7363 C.3     1  UNL1        0.0212
     18 C          63.3951   90.9944   12.7416 C.3     1  UNL1        0.0987
     19 C          64.6598   91.7010   12.3530 C.3     1  UNL1        0.0422
     20 C          64.8381   92.2026   10.9506 C.3     1  UNL1        0.0065
     21 C          65.7463   91.9061   13.3667 C.ar    1  UNL1       -0.0208
     22 C          67.1851   91.8230   12.9511 C.ar    1  UNL1       -0.0034
     23 C          68.2716   92.0281   13.9648 C.ar    1  UNL1        0.0111
     24 C          67.9192   92.3162   15.3940 C.ar    1  UNL1        0.0577
     25 CL         69.0057   92.5212   16.4077 Cl      1  UNL1       -0.0822
     26 C          66.4803   92.3992   15.8096 C.ar    1  UNL1        0.0111
     27 C          65.3938   92.1942   14.7960 C.ar    1  UNL1       -0.0034
@<TRIPOS>BOND
     1    16    17    1
     2    17    15    1
     3    15    11    1
     4    11    12   am
     5    12    13    2
     6    12     1    1
     7     1     2    1
     8     2     3   ar
     9     3     4   ar
    10     4     5   ar
    11     5     6   ar
    12     6     7   ar
    13     7     8    1
    14     8     9    2
    15     8    10   am
    16    10    18    1
    17    18    19    1
    18    19    20    1
    19    19    21    1
    20    21    22   ar
    21    22    23   ar
    22    23    24   ar
    23    24    25    1
    24    24    26   ar
    25    26    27   ar
    26    10     1    1
    27    27    21   ar
    28     7     2   ar
    29    11    14    1
@<TRIPOS>MOLECULE
*****
 27 29 0 0 0
SMALL
GASTEIGER

@<TRIPOS>ATOM
      1 C          61.7457   87.5591   10.8711 C.3     1  UNL1        0.1751
      2 C          60.9475   87.1588    9.6658 C.ar    1  UNL1        0.0089
      3 C          60.8008   85.8496    8.9486 C.ar    1  UNL1       -0.0021
      4 C          59.9117   85.7495    7.7447 C.ar    1  UNL1       -0.0003
      5 C          59.1693   86.9586    7.2580 C.ar    1  UNL1        0.0001
      6 C          59.3160   88.2678    7.9752 C.ar    1  UNL1        0.0043
      7 C          60.2051   88.3679    9.1791 C.ar    1  UNL1        0.0516
      8 C          60.5445   89.5154   10.0836 C.2     1  UNL1        0.2493
      9 O          60.0232   90.9168    9.9635 O.2     1  UNL1       -0.2699
     10 N          61.4967   89.0155   11.1293 N.am    1  UNL1       -0.2658
     11 N          62.7479   85.2059   11.3277 N.am    1  UNL1       -0.3027
     12 C          62.6366   86.6605   11.6767 C.2     1  UNL1        0.2449
     13 O          63.4162   87.2165   12.8312 O.2     1  UNL1       -0.2729
     14 H          62.2362   84.8409   10.5700 H       1  UNL1        0.1495
     15 C          63.6388   84.3073   12.1333 C.3     1  UNL1        0.0894
     16 C          64.1477   82.5637   10.2758 C.3     1  UNL1        0.0018
     17 C          63.8479   82.8835   11.7104 C.3     1  UNL1        0.0212
     18 C          62.0947   89.8292   12.2385 C.3     1  UNL1        0.0987
     19 C          63.2162   90.7822   11.9489 C.3     1  UNL1        0.0422
     20 C          63.4413   91.2725   10.5492 C.3     1  UNL1        0.0065
     21 C          64.1127   91.2451   13.0589 C.ar    1  UNL1       -0.0208
     22 C          63.8485   90.8063   14.4687 C.ar    1  UNL1       -0.0034
     23 C          64.7449   91.2691   15.5787 C.ar    1  UNL1        0.0111
     24 C          65.9056   92.1707   15.2790 C.ar    1  UNL1        0.0577
     25 CL         66.8020   92.6335   16.3890 Cl      1  UNL1       -0.0822
     26 C          66.1698   92.6096   13.8691 C.ar    1  UNL1        0.0111
     27 C          65.2734   92.1467   12.7591 C.ar    1  UNL1       -0.0034
@<TRIPOS>BOND
     1    16    17    1
     2    17    15    1
     3    15    11    1
     4    11    12   am
     5    12    13    2
     6    12     1    1
     7     1     2    1
     8     2     3   ar
     9     3     4   ar
    10     4     5   ar
    11     5     6   ar
    12     6     7   ar
    13     7     8    1
    14     8     9    2
    15     8    10   am
    16    10    18    1
    17    18    19    1
    18    19    20    1
    19    19    21    1
    20    21    22   ar
    21    22    23   ar
    22    23    24   ar
    23    24    25    1
    24    24    26   ar
    25    26    27   ar
    26    10     1    1
    27    27    21   ar
    28     7     2   ar
    29    11    14    1
@<TRIPOS>MOLECULE
*****
 27 29 0 0 0
SMALL
GASTEIGER

@<TRIPOS>ATOM
      1 C          62.9002   88.1525   12.2469 C.3     1  UNL1        0.1751
      2 C          61.9184   88.2583   11.1178 C.ar    1  UNL1        0.0089
      3 C          61.2608   89.4389   10.4669 C.ar    1  UNL1       -0.0021
      4 C          60.3007   89.2319    9.3332 C.ar    1  UNL1       -0.0003
      5 C          59.9983   87.8443    8.8503 C.ar    1  UNL1        0.0001
      6 C          60.6559   86.6637    9.5012 C.ar    1  UNL1        0.0043
      7 C          61.6160   86.8707   10.6349 C.ar    1  UNL1        0.0516
      8 C          62.4108   85.9074   11.4657 C.2     1  UNL1        0.2493
      9 O          62.4118   84.4140   11.3248 O.2     1  UNL1       -0.2699
     10 N          63.2045   86.6995   12.4620 N.am    1  UNL1       -0.2658
     11 N          64.0692   90.4721   12.3024 N.am    1  UNL1       -0.3027
     12 C          63.4764   89.2985   13.0245 C.2     1  UNL1        0.2449
     13 O          63.4599   89.2710   14.5241 O.2     1  UNL1       -0.2729
     14 H          64.0801   90.4902   11.3182 H       1  UNL1        0.1495
     15 C          64.6455   91.6181   13.0800 C.3     1  UNL1        0.0894
     16 C          65.5685   92.6492   10.8813 C.3     1  UNL1        0.0018
     17 C          65.4337   92.6818   12.3749 C.3     1  UNL1        0.0212
     18 C          64.1385   86.1374   13.4923 C.3     1  UNL1        0.0987
     19 C          63.6186   85.2075   14.5482 C.3     1  UNL1        0.0422
     20 C          63.4047   85.7055   15.9469 C.3     1  UNL1        0.0065
     21 C          63.3124   83.7797   14.2055 C.ar    1  UNL1       -0.0208
     22 C          62.0384   83.1498   14.6851 C.ar    1  UNL1       -0.0034
     23 C          61.7323   81.7219   14.3424 C.ar    1  UNL1        0.0111
     24 C          62.7002   80.9239   13.5200 C.ar    1  UNL1        0.0577
     25 CL         62.3940   79.4961   13.1773 Cl      1  UNL1       -0.0822
     26 C          63.9743   81.5538   13.0404 C.ar    1  UNL1        0.0111
     27 C          64.2804   82.9817   13.3831 C.ar    1  UNL1       -0.0034
@<TRIPOS>BOND
     1    16    17    1
     2    17    15    1
     3    15    11    1
     4    11    12   am
     5    12    13    2
     6    12     1    1
     7     1     2    1
     8     2     3   ar
     9     3     4   ar
    10     4     5   ar
    11     5     6   ar
    12     6     7   ar
    13     7     8    1
    14     8     9    2
    15     8    10   am
    16    10    18    1
    17    18    19    1
    18    19    20    1
    19    19    21    1
    20    21    22   ar
    21    22    23   ar
    22    23    24   ar
    23    24    25    1
    24    24    26   ar
    25    26    27   ar
    26    10     1    1
    27    27    21   ar
    28     7     2   ar
    29    11    14    1
@<TRIPOS>MOLECULE
*****
 27 29 0 0 0
SMALL
GASTEIGER

@<TRIPOS>ATOM
      1 C          62.0214   86.9588   10.6835 C.3     1  UNL1        0.1751
      2 C          61.0417   87.1553    9.5647 C.ar    1  UNL1        0.0089
      3 C          60.2749   86.1819    8.7195 C.ar    1  UNL1       -0.0021
      4 C          59.3478   86.6832    7.6523 C.ar    1  UNL1       -0.0003
      5 C          59.1875   88.1580    7.4302 C.ar    1  UNL1        0.0001
      6 C          59.9544   89.1314    8.2754 C.ar    1  UNL1        0.0043
      7 C          60.8815   88.6301    9.3427 C.ar    1  UNL1        0.0516
      8 C          61.7621   89.3450   10.3242 C.2     1  UNL1        0.2493
      9 O          61.9119   90.8318   10.4542 O.2     1  UNL1       -0.2699
     10 N          62.4666   88.3121   11.1529 N.am    1  UNL1       -0.2658
     11 N          62.3581   85.3619   12.7052 N.am    1  UNL1       -0.3027
     12 C          62.4760   85.6404   11.2359 C.2     1  UNL1        0.2449
     13 O          63.0486   84.6004   10.3192 O.2     1  UNL1       -0.2729
     14 H          61.9823   86.0445   13.3069 H       1  UNL1        0.1495
     15 C          62.8127   84.0435   13.2575 C.3     1  UNL1        0.0894
     16 C          62.4734   84.5717   15.7786 C.3     1  UNL1        0.0018
     17 C          62.3782   83.6145   14.6276 C.3     1  UNL1        0.0212
     18 C          63.4447   88.5846   12.2571 C.3     1  UNL1        0.0987
     19 C          63.1576   89.6573   13.2654 C.3     1  UNL1        0.0422
     20 C          61.8306   89.6942   13.9640 C.3     1  UNL1        0.0065
     21 C          64.1973   90.6931   13.5753 C.ar    1  UNL1       -0.0208
     22 C          64.6349   91.6576   12.5132 C.ar    1  UNL1       -0.0034
     23 C          65.6747   92.6934   12.8230 C.ar    1  UNL1        0.0111
     24 C          66.2769   92.7646   14.1950 C.ar    1  UNL1        0.0577
     25 CL         67.3167   93.8004   14.5048 Cl      1  UNL1       -0.0822
     26 C          65.8393   91.8000   15.2571 C.ar    1  UNL1        0.0111
     27 C          64.7995   90.7643   14.9473 C.ar    1  UNL1       -0.0034
@<TRIPOS>BOND
     1    16    17    1
     2    17    15    1
     3    15    11    1
     4    11    12   am
     5    12    13    2
     6    12     1    1
     7     1     2    1
     8     2     3   ar
     9     3     4   ar
    10     4     5   ar
    11     5     6   ar
    12     6     7   ar
    13     7     8    1
    14     8     9    2
    15     8    10   am
    16    10    18    1
    17    18    19    1
    18    19    20    1
    19    19    21    1
    20    21    22   ar
    21    22    23   ar
    22    23    24   ar
    23    24    25    1
    24    24    26   ar
    25    26    27   ar
    26    10     1    1
    27    27    21   ar
    28     7     2   ar
    29    11    14    1
