@<TRIPOS>MOLECULE
*****
 24 27 0 0 0
SMALL
GASTEIGER

@<TRIPOS>ATOM
      1 O          64.2198   91.5419   14.0296 O.2     1  UNL1       -0.2422
      2 C          63.8641   90.1661   13.5495 C.2     1  UNL1        0.3644
      3 C          63.0252   89.9951   12.3179 C.3     1  UNL1        0.2333
      4 C          62.6695   88.6192   11.8378 C.2     1  UNL1        0.3159
      5 N          63.1528   87.4144   12.5892 N.2     1  UNL1       -0.0037
      6 C          63.9918   87.5853   13.8209 C.2     1  UNL1        0.3614
      7 N          64.3475   88.9612   14.3010 N.am    1  UNL1        0.0290
      8 N          61.8305   88.4482   10.6061 N.pl3   1  UNL1       -0.1888
      9 C          61.7804   87.1198    9.9112 C.3     1  UNL1        0.2343
     10 C          60.9414   86.9488    8.6796 C.3     1  UNL1        0.1929
     11 O          60.1526   88.1062    8.1429 O.3     1  UNL1       -0.3449
     12 C          60.2028   89.4346    8.8377 C.3     1  UNL1        0.1929
     13 C          61.0417   89.6057   10.0693 C.3     1  UNL1        0.2343
     14 C          64.4751   86.3805   14.5723 C.3     1  UNL1        0.2447
     15 C          63.9372   85.0212   14.2360 C.2     1  UNL1        0.3637
     16 N          64.4258   84.1273   13.1350 N.2     1  UNL1       -0.0343
     17 C          63.6069   82.8708   13.1602 C.2     1  UNL1        0.2340
     18 C          63.6385   81.6350   12.3106 C.2     1  UNL1        0.0794
     19 C          62.6753   80.5166   12.5776 C.2     1  UNL1        0.1402
     20 F          62.7068   79.2807   11.7281 F       1  UNL1       -0.2044
     21 C          61.6805   80.6340   13.6942 C.2     1  UNL1        0.0125
     22 C          61.6489   81.8698   14.5437 C.3     1  UNL1        0.1060
     23 C          62.6121   82.9882   14.2767 C.2     1  UNL1        0.2176
     24 N          62.8163   84.3172   14.9416 N.2     1  UNL1       -0.0383
@<TRIPOS>BOND
     1     1     2    2
     2     2     3    1
     3     3     4    1
     4     4     8    1
     5     8     9    1
     6     9    10    1
     7    10    11    1
     8    11    12    1
     9    12    13    1
    10     4     5    2
    11     5     6    1
    12     6    14    1
    13    14    15    1
    14    15    16    2
    15    16    17    1
    16    17    18    2
    17    18    19    1
    18    19    20    1
    19    19    21    2
    20    21    22    1
    21    22    23    1
    22    23    24    2
    23     6     7    2
    24     7     2    1
    25    13     8    1
    26    24    15    1
    27    23    17    1
@<TRIPOS>MOLECULE
*****
 24 27 0 0 0
SMALL
GASTEIGER

@<TRIPOS>ATOM
      1 O          67.1050   93.3029   16.4528 O.2     1  UNL1       -0.2422
      2 C          66.4480   92.7756   15.2117 C.2     1  UNL1        0.3644
      3 C          66.8983   93.2546   13.8634 C.3     1  UNL1        0.2333
      4 C          66.2413   92.7273   12.6223 C.2     1  UNL1        0.3159
      5 N          65.1341   91.7211   12.7294 N.2     1  UNL1       -0.0037
      6 C          64.6838   91.2421   14.0777 C.2     1  UNL1        0.3614
      7 N          65.3407   91.7694   15.3189 N.am    1  UNL1        0.0290
      8 N          66.6917   93.2063   11.2740 N.pl3   1  UNL1       -0.1888
      9 C          66.2083   94.5247   10.7465 C.3     1  UNL1        0.2343
     10 C          66.6586   95.0037    9.3983 C.3     1  UNL1        0.1929
     11 O          67.5922   94.1643    8.5776 O.3     1  UNL1       -0.3449
     12 C          68.0756   92.8459    9.1050 C.3     1  UNL1        0.1929
     13 C          67.6253   92.3669   10.4533 C.3     1  UNL1        0.2343
     14 C          63.5765   90.2359   14.1849 C.3     1  UNL1        0.2447
     15 C          62.9095   89.7198   12.9444 C.2     1  UNL1        0.3637
     16 N          61.9309   90.4715   12.0917 N.2     1  UNL1       -0.0343
     17 C          61.5205   89.5776   10.9592 C.2     1  UNL1        0.2340
     18 C          60.5804   89.7828    9.8085 C.2     1  UNL1        0.0794
     19 C          60.3653   88.6837    8.8107 C.2     1  UNL1        0.1402
     20 F          59.4251   88.8888    7.6600 F       1  UNL1       -0.2044
     21 C          61.0903   87.3795    8.9635 C.2     1  UNL1        0.0125
     22 C          62.0305   87.1743   10.1141 C.3     1  UNL1        0.1060
     23 C          62.2456   88.2734   11.1120 C.2     1  UNL1        0.2176
     24 N          63.1040   88.3613   12.3389 N.2     1  UNL1       -0.0383
@<TRIPOS>BOND
     1     1     2    2
     2     2     3    1
     3     3     4    1
     4     4     8    1
     5     8     9    1
     6     9    10    1
     7    10    11    1
     8    11    12    1
     9    12    13    1
    10     4     5    2
    11     5     6    1
    12     6    14    1
    13    14    15    1
    14    15    16    2
    15    16    17    1
    16    17    18    2
    17    18    19    1
    18    19    20    1
    19    19    21    2
    20    21    22    1
    21    22    23    1
    22    23    24    2
    23     6     7    2
    24     7     2    1
    25    13     8    1
    26    24    15    1
    27    23    17    1
@<TRIPOS>MOLECULE
*****
 24 27 0 0 0
SMALL
GASTEIGER

@<TRIPOS>ATOM
      1 O          61.8310   85.6345    7.8155 O.2     1  UNL1       -0.2422
      2 C          62.0546   86.1423    9.2091 C.2     1  UNL1        0.3644
      3 C          62.4584   85.1926   10.2976 C.3     1  UNL1        0.2333
      4 C          62.6820   85.7004   11.6912 C.2     1  UNL1        0.3159
      5 N          62.5020   87.1579   11.9963 N.2     1  UNL1       -0.0037
      6 C          62.0982   88.1077   10.9077 C.2     1  UNL1        0.3614
      7 N          61.8745   87.5999    9.5141 N.am    1  UNL1        0.0290
      8 N          63.0858   84.7505   12.7798 N.pl3   1  UNL1       -0.1888
      9 C          63.8027   85.2623   13.9939 C.3     1  UNL1        0.2343
     10 C          64.2065   84.3126   15.0824 C.3     1  UNL1        0.1929
     11 O          63.8934   82.8511   14.9568 O.3     1  UNL1       -0.3449
     12 C          63.1765   82.3393   13.7426 C.3     1  UNL1        0.1929
     13 C          62.7727   83.2890   12.6541 C.3     1  UNL1        0.2343
     14 C          61.9181   89.5653   11.2128 C.3     1  UNL1        0.2447
     15 C          62.9555   90.2983   12.0105 C.2     1  UNL1        0.3637
     16 N          63.1845   90.1712   13.4875 N.2     1  UNL1       -0.0343
     17 C          64.3167   91.0815   13.8611 C.2     1  UNL1        0.2340
     18 C          64.9797   91.3714   15.1750 C.2     1  UNL1        0.0794
     19 C          66.1135   92.3512   15.2428 C.2     1  UNL1        0.1402
     20 F          66.7766   92.6411   16.5567 F       1  UNL1       -0.2044
     21 C          66.5842   93.0410   13.9968 C.2     1  UNL1        0.0125
     22 C          65.9211   92.7511   12.6829 C.3     1  UNL1        0.1060
     23 C          64.7873   91.7713   12.6151 C.2     1  UNL1        0.2176
     24 N          63.9461   91.2873   11.4714 N.2     1  UNL1       -0.0383
@<TRIPOS>BOND
     1     1     2    2
     2     2     3    1
     3     3     4    1
     4     4     8    1
     5     8     9    1
     6     9    10    1
     7    10    11    1
     8    11    12    1
     9    12    13    1
    10     4     5    2
    11     5     6    1
    12     6    14    1
    13    14    15    1
    14    15    16    2
    15    16    17    1
    16    17    18    2
    17    18    19    1
    18    19    20    1
    19    19    21    2
    20    21    22    1
    21    22    23    1
    22    23    24    2
    23     6     7    2
    24     7     2    1
    25    13     8    1
    26    24    15    1
    27    23    17    1
@<TRIPOS>MOLECULE
*****
 24 27 0 0 0
SMALL
GASTEIGER

@<TRIPOS>ATOM
      1 O          61.9137   88.7141   10.8342 O.2     1  UNL1       -0.2422
      2 C          62.8703   88.8021   11.9862 C.2     1  UNL1        0.3644
      3 C          63.5741   90.0938   12.2796 C.3     1  UNL1        0.2333
      4 C          64.5308   90.1819   13.4316 C.2     1  UNL1        0.3159
      5 N          64.7836   88.9782   14.2902 N.2     1  UNL1       -0.0037
      6 C          64.0797   87.6864   13.9969 C.2     1  UNL1        0.3614
      7 N          63.1231   87.5984   12.8449 N.am    1  UNL1        0.0290
      8 N          65.2346   91.4736   13.7250 N.pl3   1  UNL1       -0.1888
      9 C          65.7030   91.7729   15.1182 C.3     1  UNL1        0.2343
     10 C          66.4068   93.0646   15.4116 C.3     1  UNL1        0.1929
     11 O          66.6422   94.0570   14.3117 O.3     1  UNL1       -0.3449
     12 C          66.1738   93.7578   12.9185 C.3     1  UNL1        0.1929
     13 C          65.4700   92.4661   12.6251 C.3     1  UNL1        0.2343
     14 C          64.3325   86.4828   14.8555 C.3     1  UNL1        0.2447
     15 C          63.8465   85.1332   14.4169 C.2     1  UNL1        0.3637
     16 N          64.3257   84.3705   13.2174 N.2     1  UNL1       -0.0343
     17 C          63.5713   83.0752   13.1600 C.2     1  UNL1        0.2340
     18 C          63.6231   81.9254   12.1982 C.2     1  UNL1        0.0794
     19 C          62.7295   80.7377   12.4003 C.2     1  UNL1        0.1402
     20 F          62.7813   79.5878   11.4385 F       1  UNL1       -0.2044
     21 C          61.7842   80.6999   13.5643 C.2     1  UNL1        0.0125
     22 C          61.7323   81.8497   14.5261 C.3     1  UNL1        0.1060
     23 C          62.6259   83.0374   14.3239 C.2     1  UNL1        0.2176
     24 N          62.7960   84.3093   15.1007 N.2     1  UNL1       -0.0383
@<TRIPOS>BOND
     1     1     2    2
     2     2     3    1
     3     3     4    1
     4     4     8    1
     5     8     9    1
     6     9    10    1
     7    10    11    1
     8    11    12    1
     9    12    13    1
    10     4     5    2
    11     5     6    1
    12     6    14    1
    13    14    15    1
    14    15    16    2
    15    16    17    1
    16    17    18    2
    17    18    19    1
    18    19    20    1
    19    19    21    2
    20    21    22    1
    21    22    23    1
    22    23    24    2
    23     6     7    2
    24     7     2    1
    25    13     8    1
    26    24    15    1
    27    23    17    1
@<TRIPOS>MOLECULE
*****
 24 27 0 0 0
SMALL
GASTEIGER

@<TRIPOS>ATOM
      1 O          59.3082   86.7408    7.5850 O.2     1  UNL1       -0.2422
      2 C          60.1644   86.8967    8.8067 C.2     1  UNL1        0.3644
      3 C          61.0365   85.7640    9.2609 C.3     1  UNL1        0.2333
      4 C          61.8928   85.9200   10.4826 C.2     1  UNL1        0.3159
      5 N          61.8769   87.2086   11.2501 N.2     1  UNL1       -0.0037
      6 C          61.0048   88.3414   10.7959 C.2     1  UNL1        0.3614
      7 N          60.1486   88.1855    9.5742 N.am    1  UNL1        0.0290
      8 N          62.7649   84.7871   10.9369 N.pl3   1  UNL1       -0.1888
      9 C          62.8821   84.4703   12.3983 C.3     1  UNL1        0.2343
     10 C          63.7541   83.3376   12.8526 C.3     1  UNL1        0.1929
     11 O          64.5090   82.5217   11.8454 O.3     1  UNL1       -0.3449
     12 C          64.3918   82.8385   10.3839 C.3     1  UNL1        0.1929
     13 C          63.5197   83.9713    9.9297 C.3     1  UNL1        0.2343
     14 C          60.9890   89.6301   11.5633 C.3     1  UNL1        0.2447
     15 C          62.2662   90.1893   12.1166 C.2     1  UNL1        0.3637
     16 N          62.8749   89.8498   13.4449 N.2     1  UNL1       -0.0343
     17 C          64.1438   90.6368   13.5880 C.2     1  UNL1        0.2340
     18 C          65.1620   90.7082   14.6871 C.2     1  UNL1        0.0794
     19 C          66.3559   91.6053   14.5463 C.2     1  UNL1        0.1402
     20 F          67.3742   91.6767   15.6454 F       1  UNL1       -0.2044
     21 C          66.5314   92.4312   13.3065 C.2     1  UNL1        0.0125
     22 C          65.5131   92.3599   12.2074 C.3     1  UNL1        0.1060
     23 C          64.3193   91.4627   12.3482 C.2     1  UNL1        0.2176
     24 N          63.1589   91.1861   11.4388 N.2     1  UNL1       -0.0383
@<TRIPOS>BOND
     1     1     2    2
     2     2     3    1
     3     3     4    1
     4     4     8    1
     5     8     9    1
     6     9    10    1
     7    10    11    1
     8    11    12    1
     9    12    13    1
    10     4     5    2
    11     5     6    1
    12     6    14    1
    13    14    15    1
    14    15    16    2
    15    16    17    1
    16    17    18    2
    17    18    19    1
    18    19    20    1
    19    19    21    2
    20    21    22    1
    21    22    23    1
    22    23    24    2
    23     6     7    2
    24     7     2    1
    25    13     8    1
    26    24    15    1
    27    23    17    1
@<TRIPOS>MOLECULE
*****
 24 27 0 0 0
SMALL
GASTEIGER

@<TRIPOS>ATOM
      1 O          60.3446   85.9079    8.2128 O.2     1  UNL1       -0.2422
      2 C          61.1097   86.5012    9.3585 C.2     1  UNL1        0.3644
      3 C          61.6790   85.6096   10.4219 C.3     1  UNL1        0.2333
      4 C          62.4441   86.2029   11.5676 C.2     1  UNL1        0.3159
      5 N          62.6399   87.6878   11.6499 N.2     1  UNL1       -0.0037
      6 C          62.0706   88.5794   10.5864 C.2     1  UNL1        0.3614
      7 N          61.3055   87.9861    9.4407 N.am    1  UNL1        0.0290
      8 N          63.0135   85.3112   12.6311 N.pl3   1  UNL1       -0.1888
      9 C          63.8096   85.9011   13.7573 C.3     1  UNL1        0.2343
     10 C          64.3789   85.0095   14.8207 C.3     1  UNL1        0.1929
     11 O          64.1521   83.5281   14.7579 O.3     1  UNL1       -0.3449
     12 C          63.3560   82.9383   13.6317 C.3     1  UNL1        0.1929
     13 C          62.7867   83.8298   12.5683 C.3     1  UNL1        0.2343
     14 C          62.2664   90.0643   10.6687 C.3     1  UNL1        0.2447
     15 C          63.1955   90.6426   11.6945 C.2     1  UNL1        0.3637
     16 N          64.2940   91.6298   11.4323 N.2     1  UNL1       -0.0343
     17 C          64.9667   91.9326   12.7384 C.2     1  UNL1        0.2340
     18 C          66.1127   92.8335   13.0920 C.2     1  UNL1        0.0794
     19 C          66.5759   92.9342   14.5151 C.2     1  UNL1        0.1402
     20 F          67.7220   93.8351   14.8688 F       1  UNL1       -0.2044
     21 C          65.8932   92.1340   15.5845 C.2     1  UNL1        0.0125
     22 C          64.7473   91.2332   15.2309 C.3     1  UNL1        0.1060
     23 C          64.2840   91.1324   13.8078 C.2     1  UNL1        0.2176
     24 N          63.1894   90.3352   13.1626 N.2     1  UNL1       -0.0383
@<TRIPOS>BOND
     1     1     2    2
     2     2     3    1
     3     3     4    1
     4     4     8    1
     5     8     9    1
     6     9    10    1
     7    10    11    1
     8    11    12    1
     9    12    13    1
    10     4     5    2
    11     5     6    1
    12     6    14    1
    13    14    15    1
    14    15    16    2
    15    16    17    1
    16    17    18    2
    17    18    19    1
    18    19    20    1
    19    19    21    2
    20    21    22    1
    21    22    23    1
    22    23    24    2
    23     6     7    2
    24     7     2    1
    25    13     8    1
    26    24    15    1
    27    23    17    1
@<TRIPOS>MOLECULE
*****
 24 27 0 0 0
SMALL
GASTEIGER

@<TRIPOS>ATOM
      1 O          63.6679   85.9958   13.7740 O.2     1  UNL1       -0.2422
      2 C          63.1726   86.9228   12.7038 C.2     1  UNL1        0.3644
      3 C          62.4564   86.3716   11.5066 C.3     1  UNL1        0.2333
      4 C          61.9611   87.2986   10.4365 C.2     1  UNL1        0.3159
      5 N          62.1818   88.7768   10.5635 N.2     1  UNL1       -0.0037
      6 C          62.8980   89.3280   11.7607 C.2     1  UNL1        0.3614
      7 N          63.3934   88.4010   12.8309 N.am    1  UNL1        0.0290
      8 N          61.2449   86.7473    9.2392 N.pl3   1  UNL1       -0.1888
      9 C          61.9438   85.7859    8.3242 C.3     1  UNL1        0.2343
     10 C          61.2277   85.2346    7.1270 C.3     1  UNL1        0.1929
     11 O          59.8128   85.6448    6.8449 O.3     1  UNL1       -0.3449
     12 C          59.1139   86.6062    7.7599 C.3     1  UNL1        0.1929
     13 C          59.8300   87.1575    8.9570 C.3     1  UNL1        0.2343
     14 C          63.1187   90.8062   11.8877 C.3     1  UNL1        0.2447
     15 C          64.1942   91.3289   12.7934 C.2     1  UNL1        0.3637
     16 N          65.5412   91.8306   12.3646 N.2     1  UNL1       -0.0343
     17 C          66.2910   92.2534   13.5930 C.2     1  UNL1        0.2340
     18 C          67.6642   92.8262   13.7833 C.2     1  UNL1        0.0794
     19 C          68.1537   93.1586   15.1616 C.2     1  UNL1        0.1402
     20 F          69.5269   93.7314   15.3520 F       1  UNL1       -0.2044
     21 C          67.2701   92.9182   16.3497 C.2     1  UNL1        0.0125
     22 C          65.8969   92.3453   16.1594 C.3     1  UNL1        0.1060
     23 C          65.4074   92.0129   14.7811 C.2     1  UNL1        0.2176
     24 N          64.1115   91.4416   14.2868 N.2     1  UNL1       -0.0383
@<TRIPOS>BOND
     1     1     2    2
     2     2     3    1
     3     3     4    1
     4     4     8    1
     5     8     9    1
     6     9    10    1
     7    10    11    1
     8    11    12    1
     9    12    13    1
    10     4     5    2
    11     5     6    1
    12     6    14    1
    13    14    15    1
    14    15    16    2
    15    16    17    1
    16    17    18    2
    17    18    19    1
    18    19    20    1
    19    19    21    2
    20    21    22    1
    21    22    23    1
    22    23    24    2
    23     6     7    2
    24     7     2    1
    25    13     8    1
    26    24    15    1
    27    23    17    1
@<TRIPOS>MOLECULE
*****
 24 27 0 0 0
SMALL
GASTEIGER

@<TRIPOS>ATOM
      1 O          60.3953   86.1079    7.6049 O.2     1  UNL1       -0.2422
      2 C          60.9762   86.4506    8.9446 C.2     1  UNL1        0.3644
      3 C          61.6914   85.4011    9.7427 C.3     1  UNL1        0.2333
      4 C          62.2723   85.7439   11.0825 C.2     1  UNL1        0.3159
      5 N          62.1381   87.1362   11.6242 N.2     1  UNL1       -0.0037
      6 C          61.4230   88.1858   10.8261 C.2     1  UNL1        0.3614
      7 N          60.8420   87.8430    9.4863 N.am    1  UNL1        0.0290
      8 N          62.9875   84.6942   11.8806 N.pl3   1  UNL1       -0.1888
      9 C          63.4170   83.4158   11.2240 C.3     1  UNL1        0.2343
     10 C          64.1321   82.3662   12.0220 C.3     1  UNL1        0.1929
     11 O          64.4178   82.5951   13.4767 O.3     1  UNL1       -0.3449
     12 C          63.9883   83.8735   14.1332 C.3     1  UNL1        0.1929
     13 C          63.2732   84.9231   13.3352 C.3     1  UNL1        0.2343
     14 C          61.2888   89.5781   11.3677 C.3     1  UNL1        0.2447
     15 C          62.5042   90.4436   11.5211 C.2     1  UNL1        0.3637
     16 N          63.1162   91.3014   10.4536 N.2     1  UNL1       -0.0343
     17 C          64.3113   91.9912   11.0416 C.2     1  UNL1        0.2340
     18 C          65.3006   92.9565   10.4589 C.2     1  UNL1        0.0794
     19 C          66.4165   93.4903   11.3072 C.2     1  UNL1        0.1402
     20 F          67.4059   94.4556   10.7245 F       1  UNL1       -0.2044
     21 C          66.5433   93.0588   12.7382 C.2     1  UNL1        0.0125
     22 C          65.5540   92.0935   13.3209 C.3     1  UNL1        0.1060
     23 C          64.4381   91.5597   12.4726 C.2     1  UNL1        0.2176
     24 N          63.3212   90.6032   12.7689 N.2     1  UNL1       -0.0383
@<TRIPOS>BOND
     1     1     2    2
     2     2     3    1
     3     3     4    1
     4     4     8    1
     5     8     9    1
     6     9    10    1
     7    10    11    1
     8    11    12    1
     9    12    13    1
    10     4     5    2
    11     5     6    1
    12     6    14    1
    13    14    15    1
    14    15    16    2
    15    16    17    1
    16    17    18    2
    17    18    19    1
    18    19    20    1
    19    19    21    2
    20    21    22    1
    21    22    23    1
    22    23    24    2
    23     6     7    2
    24     7     2    1
    25    13     8    1
    26    24    15    1
    27    23    17    1
@<TRIPOS>MOLECULE
*****
 24 27 0 0 0
SMALL
GASTEIGER

@<TRIPOS>ATOM
      1 O          62.9493   80.3383   13.7139 O.2     1  UNL1       -0.2422
      2 C          62.9132   81.8346   13.6153 C.2     1  UNL1        0.3644
      3 C          62.7088   82.4938   12.2835 C.3     1  UNL1        0.2333
      4 C          62.6727   83.9901   12.1850 C.2     1  UNL1        0.3159
      5 N          62.8408   84.8273   13.4182 N.2     1  UNL1       -0.0037
      6 C          63.0452   84.1681   14.7500 C.2     1  UNL1        0.3614
      7 N          63.0814   82.6718   14.8486 N.am    1  UNL1        0.0290
      8 N          62.4683   84.6493   10.8531 N.pl3   1  UNL1       -0.1888
      9 C          61.4531   85.7437   10.7058 C.3     1  UNL1        0.2343
     10 C          61.2487   86.4028    9.3740 C.3     1  UNL1        0.1929
     11 O          62.0596   85.9676    8.1895 O.3     1  UNL1       -0.3449
     12 C          63.0748   84.8733    8.3368 C.3     1  UNL1        0.1929
     13 C          63.2792   84.2141    9.6686 C.3     1  UNL1        0.2343
     14 C          63.2134   85.0053   15.9832 C.3     1  UNL1        0.2447
     15 C          63.4700   86.4781   15.8607 C.2     1  UNL1        0.3637
     16 N          64.2557   87.1487   14.7731 N.2     1  UNL1       -0.0343
     17 C          64.2573   88.6239   15.0445 C.2     1  UNL1        0.2340
     18 C          64.8719   89.7788   14.3106 C.2     1  UNL1        0.0794
     19 C          64.7018   91.1748   14.8322 C.2     1  UNL1        0.1402
     20 F          65.3164   92.3297   14.0984 F       1  UNL1       -0.2044
     21 C          63.9171   91.4160   16.0876 C.2     1  UNL1        0.0125
     22 C          63.3024   90.2611   16.8214 C.3     1  UNL1        0.1060
     23 C          63.4726   88.8651   16.2998 C.2     1  UNL1        0.2176
     24 N          62.9860   87.5389   16.8043 N.2     1  UNL1       -0.0383
@<TRIPOS>BOND
     1     1     2    2
     2     2     3    1
     3     3     4    1
     4     4     8    1
     5     8     9    1
     6     9    10    1
     7    10    11    1
     8    11    12    1
     9    12    13    1
    10     4     5    2
    11     5     6    1
    12     6    14    1
    13    14    15    1
    14    15    16    2
    15    16    17    1
    16    17    18    2
    17    18    19    1
    18    19    20    1
    19    19    21    2
    20    21    22    1
    21    22    23    1
    22    23    24    2
    23     6     7    2
    24     7     2    1
    25    13     8    1
    26    24    15    1
    27    23    17    1
