@<TRIPOS>MOLECULE
*****
 16 18 0 0 0
SMALL
GASTEIGER

@<TRIPOS>ATOM
      1 O          64.5902   89.9423   13.4904 O.3     1  UNL1       -0.4724
      2 CL         62.6882   86.5380   18.0503 Cl      1  UNL1       -0.0613
      3 C          63.1637   87.3891   16.9103 C.ar    1  UNL1        0.1386
      4 C          62.9761   88.8766   16.9557 C.ar    1  UNL1        0.0339
      5 C          63.4516   89.7277   15.8157 C.ar    1  UNL1        0.0410
      6 C          64.1147   89.0913   14.6303 C.ar    1  UNL1        0.1578
      7 C          64.3024   87.6038   14.5849 C.ar    1  UNL1        0.1366
      8 N          63.8269   86.7527   15.7249 N.ar    1  UNL1       -0.2293
      9 C          64.7184   91.4266   13.6651 C.3     1  UNL1        0.2210
     10 C          65.9451   92.0029   14.3079 C.3     1  UNL1        0.0983
     11 C          67.2559   91.2983   14.4956 C.3     1  UNL1        0.0209
     12 C          68.1973   92.2450   15.1795 C.3     1  UNL1        0.0172
     13 C          68.8950   93.3889   15.8537 C.3     1  UNL1        0.0171
     14 C          67.4682   93.5346   15.4145 C.3     1  UNL1        0.0541
     15 N          66.0762   93.3851   14.8758 N.3     1  UNL1       -0.2966
     16 H          65.9119   94.0769   14.1445 H       1  UNL1        0.1233
@<TRIPOS>BOND
     1     2     3    1
     2     3     4   ar
     3     4     5   ar
     4     5     6   ar
     5     6     1    1
     6     1     9    1
     7    10     9    1
     8    10    11    1
     9    12    11    1
    10    12    13    1
    11    14    13    1
    12    14    15    1
    13     6     7   ar
    14     7     8   ar
    15     8     3   ar
    16    15    10    1
    17    14    12    1
    18    15    16    1
@<TRIPOS>MOLECULE
*****
 16 18 0 0 0
SMALL
GASTEIGER

@<TRIPOS>ATOM
      1 O          63.9273   91.6717   13.0247 O.3     1  UNL1       -0.4724
      2 CL         61.6813   87.1245    9.8187 Cl      1  UNL1       -0.0613
      3 C          62.2428   88.2613   10.6202 C.ar    1  UNL1        0.1386
      4 C          62.2267   89.6531   10.0611 C.ar    1  UNL1        0.0339
      5 C          62.7881   90.7899   10.8626 C.ar    1  UNL1        0.0410
      6 C          63.3658   90.5349   12.2232 C.ar    1  UNL1        0.1578
      7 C          63.3819   89.1431   12.7823 C.ar    1  UNL1        0.1366
      8 N          62.8205   88.0063   11.9808 N.ar    1  UNL1       -0.2293
      9 C          65.2168   92.3163   12.6107 C.3     1  UNL1        0.2210
     10 C          66.2986   92.5480   13.6236 C.3     1  UNL1        0.0983
     11 C          67.6636   91.9261   13.6138 C.3     1  UNL1        0.0209
     12 C          68.4140   92.4360   14.8083 C.3     1  UNL1        0.0172
     13 C          68.9003   93.1052   16.0595 C.3     1  UNL1        0.0171
     14 C          67.5128   93.3731   15.5564 C.3     1  UNL1        0.0541
     15 N          66.2054   93.4424   14.8243 N.3     1  UNL1       -0.2966
     16 H          66.0249   94.4016   14.5282 H       1  UNL1        0.1233
@<TRIPOS>BOND
     1     2     3    1
     2     3     4   ar
     3     4     5   ar
     4     5     6   ar
     5     6     1    1
     6     1     9    1
     7    10     9    1
     8    10    11    1
     9    12    11    1
    10    12    13    1
    11    14    13    1
    12    14    15    1
    13     6     7   ar
    14     7     8   ar
    15     8     3   ar
    16    15    10    1
    17    14    12    1
    18    15    16    1
@<TRIPOS>MOLECULE
*****
 16 18 0 0 0
SMALL
GASTEIGER

@<TRIPOS>ATOM
      1 O          61.6681   86.0090   12.0427 O.3     1  UNL1       -0.4724
      2 CL         59.4017   88.8093    7.2446 Cl      1  UNL1       -0.0613
      3 C          59.9683   88.1092    8.4442 C.ar    1  UNL1        0.1386
      4 C          60.4988   86.7120    8.3160 C.ar    1  UNL1        0.0339
      5 C          61.0655   86.0120    9.5155 C.ar    1  UNL1        0.0410
      6 C          61.1015   86.7090   10.8432 C.ar    1  UNL1        0.1578
      7 C          60.5710   88.1062   10.9714 C.ar    1  UNL1        0.1366
      8 N          60.0043   88.8063    9.7718 N.ar    1  UNL1       -0.2293
      9 C          62.8257   85.0682   11.8848 C.3     1  UNL1        0.2210
     10 C          62.7265   83.6636   12.4016 C.3     1  UNL1        0.0983
     11 C          62.8808   82.4121   11.5892 C.3     1  UNL1        0.0209
     12 C          62.7053   81.2389   12.5071 C.3     1  UNL1        0.0172
     13 C          62.4880   80.2856   13.6446 C.3     1  UNL1        0.0171
     14 C          62.4425   81.7652   13.8870 C.3     1  UNL1        0.0541
     15 N          62.4556   83.2637   13.8218 N.3     1  UNL1       -0.2966
     16 H          63.1876   83.6303   14.4303 H       1  UNL1        0.1233
@<TRIPOS>BOND
     1     2     3    1
     2     3     4   ar
     3     4     5   ar
     4     5     6   ar
     5     6     1    1
     6     1     9    1
     7    10     9    1
     8    10    11    1
     9    12    11    1
    10    12    13    1
    11    14    13    1
    12    14    15    1
    13     6     7   ar
    14     7     8   ar
    15     8     3   ar
    16    15    10    1
    17    14    12    1
    18    15    16    1
@<TRIPOS>MOLECULE
*****
 16 18 0 0 0
SMALL
GASTEIGER

@<TRIPOS>ATOM
      1 O          64.0025   91.6623   13.4811 O.3     1  UNL1       -0.4724
      2 CL         61.9153   87.3637    9.8526 Cl      1  UNL1       -0.0613
      3 C          62.4371   88.4383   10.7597 C.ar    1  UNL1        0.1386
      4 C          62.4338   89.8685   10.3075 C.ar    1  UNL1        0.0339
      5 C          62.9556   90.9431   11.2146 C.ar    1  UNL1        0.0410
      6 C          63.4807   90.5876   12.5740 C.ar    1  UNL1        0.1578
      7 C          63.4840   89.1574   13.0262 C.ar    1  UNL1        0.1366
      8 N          62.9622   88.0828   12.1190 N.ar    1  UNL1       -0.2293
      9 C          65.4374   92.0894   13.3898 C.3     1  UNL1        0.2210
     10 C          65.8754   93.0184   12.2966 C.3     1  UNL1        0.0983
     11 C          66.2735   92.6187   10.9067 C.3     1  UNL1        0.0209
     12 C          66.6363   93.8634   10.1524 C.3     1  UNL1        0.0172
     13 C          66.9286   95.2524    9.6674 C.3     1  UNL1        0.0171
     14 C          66.4624   95.0324   11.0760 C.3     1  UNL1        0.0541
     15 N          65.9921   94.5102   12.4013 N.3     1  UNL1       -0.2966
     16 H          65.0834   94.9134   12.6295 H       1  UNL1        0.1233
@<TRIPOS>BOND
     1     2     3    1
     2     3     4   ar
     3     4     5   ar
     4     5     6   ar
     5     6     1    1
     6     1     9    1
     7    10     9    1
     8    10    11    1
     9    12    11    1
    10    12    13    1
    11    14    13    1
    12    14    15    1
    13     6     7   ar
    14     7     8   ar
    15     8     3   ar
    16    15    10    1
    17    14    12    1
    18    15    16    1
@<TRIPOS>MOLECULE
*****
 16 18 0 0 0
SMALL
GASTEIGER

@<TRIPOS>ATOM
      1 O          62.8392   85.7258   12.5100 O.3     1  UNL1       -0.4724
      2 CL         62.3462   79.8343   13.5332 Cl      1  UNL1       -0.0613
      3 C          62.4695   81.3071   13.2774 C.ar    1  UNL1        0.1386
      4 C          62.7183   81.8084   11.8857 C.ar    1  UNL1        0.0339
      5 C          62.8416   83.2813   11.6299 C.ar    1  UNL1        0.0410
      6 C          62.7160   84.2529   12.7658 C.ar    1  UNL1        0.1578
      7 C          62.4671   83.7516   14.1574 C.ar    1  UNL1        0.1366
      8 N          62.3438   82.2787   14.4132 N.ar    1  UNL1       -0.2293
      9 C          62.3832   86.3006   11.2017 C.3     1  UNL1        0.2210
     10 C          61.6179   87.5904   11.1753 C.3     1  UNL1        0.0983
     11 C          62.1683   88.9346   10.8010 C.3     1  UNL1        0.0209
     12 C          61.0585   89.9375   10.9129 C.3     1  UNL1        0.0172
     13 C          59.7776   90.6923   11.1116 C.3     1  UNL1        0.0171
     14 C          59.8221   89.2131   11.3562 C.3     1  UNL1        0.0541
     15 N          60.1678   87.7625   11.5184 N.3     1  UNL1       -0.2966
     16 H          59.5944   87.1978   10.8916 H       1  UNL1        0.1233
@<TRIPOS>BOND
     1     2     3    1
     2     3     4   ar
     3     4     5   ar
     4     5     6   ar
     5     6     1    1
     6     1     9    1
     7    10     9    1
     8    10    11    1
     9    12    11    1
    10    12    13    1
    11    14    13    1
    12    14    15    1
    13     6     7   ar
    14     7     8   ar
    15     8     3   ar
    16    15    10    1
    17    14    12    1
    18    15    16    1
@<TRIPOS>MOLECULE
*****
 16 18 0 0 0
SMALL
GASTEIGER

@<TRIPOS>ATOM
      1 O          61.8914   89.4880   12.3923 O.3     1  UNL1       -0.4724
      2 CL         66.3865   93.4369   11.9446 Cl      1  UNL1       -0.0613
      3 C          65.2627   92.4497   12.0565 C.ar    1  UNL1        0.1386
      4 C          64.5222   92.0136   10.8271 C.ar    1  UNL1        0.0339
      5 C          63.3984   91.0264   10.9390 C.ar    1  UNL1        0.0410
      6 C          63.0151   90.4753   12.2804 C.ar    1  UNL1        0.1578
      7 C          63.7556   90.9113   13.5098 C.ar    1  UNL1        0.1366
      8 N          64.8794   91.8985   13.3979 N.ar    1  UNL1       -0.2293
      9 C          60.7181   89.5786   11.4622 C.3     1  UNL1        0.2210
     10 C          60.5425   88.5601   10.3751 C.3     1  UNL1        0.0983
     11 C          60.0663   88.8337    8.9792 C.3     1  UNL1        0.0209
     12 C          60.0417   87.5319    8.2343 C.3     1  UNL1        0.0172
     13 C          60.1201   86.1109    7.7606 C.3     1  UNL1        0.0171
     14 C          60.5026   86.4538    9.1698 C.3     1  UNL1        0.0541
     15 N          60.8121   87.0892   10.4929 N.3     1  UNL1       -0.2966
     16 H          61.7920   86.9349   10.7303 H       1  UNL1        0.1233
@<TRIPOS>BOND
     1     2     3    1
     2     3     4   ar
     3     4     5   ar
     4     5     6   ar
     5     6     1    1
     6     1     9    1
     7    10     9    1
     8    10    11    1
     9    12    11    1
    10    12    13    1
    11    14    13    1
    12    14    15    1
    13     6     7   ar
    14     7     8   ar
    15     8     3   ar
    16    15    10    1
    17    14    12    1
    18    15    16    1
@<TRIPOS>MOLECULE
*****
 16 18 0 0 0
SMALL
GASTEIGER

@<TRIPOS>ATOM
      1 O          61.4541   89.7159   12.2932 O.3     1  UNL1       -0.4724
      2 CL         60.6503   85.9545    7.6882 Cl      1  UNL1       -0.0613
      3 C          60.8513   86.8948    8.8395 C.ar    1  UNL1        0.1386
      4 C          61.9116   86.6125    9.8622 C.ar    1  UNL1        0.0339
      5 C          62.1125   87.5529   11.0134 C.ar    1  UNL1        0.0410
      6 C          61.2531   88.7755   11.1420 C.ar    1  UNL1        0.1578
      7 C          60.1928   89.0578   10.1192 C.ar    1  UNL1        0.1366
      8 N          59.9919   88.1175    8.9680 N.ar    1  UNL1       -0.2293
      9 C          62.8247   89.9141   12.8693 C.3     1  UNL1        0.2210
     10 C          63.7293   90.9701   12.3066 C.3     1  UNL1        0.0983
     11 C          63.8722   91.3277   10.8569 C.3     1  UNL1        0.0209
     12 C          64.8810   92.4325   10.7492 C.3     1  UNL1        0.0172
     13 C          65.9047   93.5096   10.9535 C.3     1  UNL1        0.0171
     14 C          65.3617   92.7577   12.1323 C.3     1  UNL1        0.0541
     15 N          64.6499   91.8539   13.0950 N.3     1  UNL1       -0.2966
     16 H          64.1113   92.4105   13.7587 H       1  UNL1        0.1233
@<TRIPOS>BOND
     1     2     3    1
     2     3     4   ar
     3     4     5   ar
     4     5     6   ar
     5     6     1    1
     6     1     9    1
     7    10     9    1
     8    10    11    1
     9    12    11    1
    10    12    13    1
    11    14    13    1
    12    14    15    1
    13     6     7   ar
    14     7     8   ar
    15     8     3   ar
    16    15    10    1
    17    14    12    1
    18    15    16    1
@<TRIPOS>MOLECULE
*****
 16 18 0 0 0
SMALL
GASTEIGER

@<TRIPOS>ATOM
      1 O          61.6735   90.2632   11.2173 O.3     1  UNL1       -0.4724
      2 CL         60.1733   85.7751    7.5287 Cl      1  UNL1       -0.0613
      3 C          60.5483   86.8971    8.4509 C.ar    1  UNL1        0.1386
      4 C          61.7084   86.7411    9.3889 C.ar    1  UNL1        0.0339
      5 C          62.0834   87.8631   10.3110 C.ar    1  UNL1        0.0410
      6 C          61.2984   89.1412   10.2952 C.ar    1  UNL1        0.1578
      7 C          60.1383   89.2972    9.3572 C.ar    1  UNL1        0.1366
      8 N          59.7633   88.1751    8.4350 N.ar    1  UNL1       -0.2293
      9 C          62.9598   91.0063   11.0100 C.3     1  UNL1        0.2210
     10 C          63.9390   91.1400   12.1384 C.3     1  UNL1        0.0983
     11 C          64.0403   90.2344   13.3299 C.3     1  UNL1        0.0209
     12 C          65.1527   90.7376   14.2013 C.3     1  UNL1        0.0172
     13 C          66.2938   91.4617   14.8521 C.3     1  UNL1        0.0171
     14 C          65.7390   91.9541   13.5484 C.3     1  UNL1        0.0541
     15 N          64.9889   92.2029   12.2734 N.3     1  UNL1       -0.2966
     16 H          65.6294   92.1595   11.4809 H       1  UNL1        0.1233
@<TRIPOS>BOND
     1     2     3    1
     2     3     4   ar
     3     4     5   ar
     4     5     6   ar
     5     6     1    1
     6     1     9    1
     7    10     9    1
     8    10    11    1
     9    12    11    1
    10    12    13    1
    11    14    13    1
    12    14    15    1
    13     6     7   ar
    14     7     8   ar
    15     8     3   ar
    16    15    10    1
    17    14    12    1
    18    15    16    1
@<TRIPOS>MOLECULE
*****
 16 18 0 0 0
SMALL
GASTEIGER

@<TRIPOS>ATOM
      1 O          62.2872   89.7940   13.2380 O.3     1  UNL1       -0.4724
      2 CL         59.7359   88.9703    7.8703 Cl      1  UNL1       -0.0613
      3 C          60.3737   89.1763    9.2122 C.ar    1  UNL1        0.1386
      4 C          61.5114   88.2994    9.6444 C.ar    1  UNL1        0.0339
      5 C          62.1492   88.5053   10.9863 C.ar    1  UNL1        0.0410
      6 C          61.6494   89.5881   11.8960 C.ar    1  UNL1        0.1578
      7 C          60.5118   90.4650   11.4639 C.ar    1  UNL1        0.1366
      8 N          59.8739   90.2591   10.1219 N.ar    1  UNL1       -0.2293
      9 C          63.7690   89.6249   13.3980 C.3     1  UNL1        0.2210
     10 C          64.6441   90.8270   13.5957 C.3     1  UNL1        0.0983
     11 C          64.9655   91.8635   12.5602 C.3     1  UNL1        0.0209
     12 C          65.8715   92.8808   13.1882 C.3     1  UNL1        0.0172
     13 C          66.7486   93.7179   14.0713 C.3     1  UNL1        0.0171
     14 C          66.1100   92.4730   14.6119 C.3     1  UNL1        0.0541
     15 N          65.3515   91.2036   14.8638 N.3     1  UNL1       -0.2966
     16 H          64.6711   91.3492   15.6096 H       1  UNL1        0.1233
@<TRIPOS>BOND
     1     2     3    1
     2     3     4   ar
     3     4     5   ar
     4     5     6   ar
     5     6     1    1
     6     1     9    1
     7    10     9    1
     8    10    11    1
     9    12    11    1
    10    12    13    1
    11    14    13    1
    12    14    15    1
    13     6     7   ar
    14     7     8   ar
    15     8     3   ar
    16    15    10    1
    17    14    12    1
    18    15    16    1
