@<TRIPOS>MOLECULE
*****
 38 40 0 0 0
SMALL
GASTEIGER

@<TRIPOS>ATOM
      1 C          60.7463   88.4681    9.3410 C.ar    1  UNL1        0.0085
      2 C          60.0131   89.4113    8.4340 C.ar    1  UNL1       -0.0057
      3 C          59.5143   88.9354    7.1019 C.ar    1  UNL1       -0.0220
      4 C          58.7811   89.8788    6.1949 C.3     1  UNL1        0.0310
      5 C          59.7487   87.5162    6.6767 C.ar    1  UNL1       -0.0030
      6 C          60.4819   86.5729    7.5836 C.ar    1  UNL1        0.0139
      7 C          60.9807   87.0489    8.9158 C.ar    1  UNL1        0.0454
      8 N          61.7139   86.1055    9.8228 N.pl3   1  UNL1       -0.3043
      9 C          61.3848   86.0636   11.2856 C.3     1  UNL1        0.1123
     10 C          62.1180   85.1203   12.1926 C.3     1  UNL1        0.1148
     11 N          63.1803   84.2189   11.6367 N.am    1  UNL1       -0.2760
     12 C          63.9135   83.2756   12.5437 C.2     1  UNL1        0.2256
     13 O          64.9758   82.3743   11.9878 O.2     1  UNL1       -0.2749
     14 C          63.5095   84.2608   10.1739 C.3     1  UNL1        0.1148
     15 C          62.7763   85.2042    9.2669 C.3     1  UNL1        0.1123
     16 C          63.5844   83.2336   14.0065 C.3     1  UNL1        0.0811
     17 C          62.3847   82.4701   14.4837 C.3     1  UNL1        0.0099
     18 C          64.4549   83.9552   14.9921 C.3     1  UNL1        0.0354
     19 C          64.1157   85.3560   15.4076 C.ar    1  UNL1       -0.0217
     20 C          63.3006   85.5951   16.6439 C.ar    1  UNL1       -0.0034
     21 C          62.9615   86.9960   17.0593 C.ar    1  UNL1        0.0111
     22 C          63.4374   88.1577   16.2384 C.ar    1  UNL1        0.0577
     23 CL         63.0983   89.5586   16.6538 Cl      1  UNL1       -0.0822
     24 C          64.2525   87.9186   15.0021 C.ar    1  UNL1        0.0111
     25 C          64.5916   86.5178   14.5867 C.ar    1  UNL1       -0.0034
     26 C          61.2451   88.9440   10.6732 C.3     1  UNL1        0.0951
     27 C          59.3887   89.6452   12.3501 C.2     1  UNL1        0.2241
     28 O          59.1314   90.8854   11.5467 O.2     1  UNL1       -0.2750
     29 N          60.4455   88.6745   11.9133 N.am    1  UNL1       -0.3021
     30 H          60.6144   87.8604   12.4407 H       1  UNL1        0.1497
     31 C          58.5891   89.3756   13.5903 C.3     1  UNL1        0.1021
     32 C          57.6516   88.2057   13.6387 C.3     1  UNL1        0.0783
     33 C          55.2091   87.3389   13.4571 C.3     1  UNL1        0.0859
     34 N          56.2679   88.3295   13.0729 N.3     1  UNL1       -0.2959
     35 H          55.9212   89.2503   13.3419 H       1  UNL1        0.1233
     36 C          62.5434   89.6895   10.7652 C.3     1  UNL1        0.0223
     37 C          63.5068   89.3839   11.8736 C.3     1  UNL1        0.0020
     38 C          62.8784   90.7406    9.7488 C.3     1  UNL1        0.0020
@<TRIPOS>BOND
     1    33    34    1
     2    34    32    1
     3    32    31    1
     4    31    27    1
     5    27    28    2
     6    27    29   am
     7    26    29    1
     8    26     1    1
     9     1     2   ar
    10     2     3   ar
    11     3     4    1
    12     3     5   ar
    13     5     6   ar
    14     6     7   ar
    15     7     8    1
    16     8     9    1
    17     9    10    1
    18    10    11    1
    19    11    12   am
    20    12    13    2
    21    12    16    1
    22    16    17    1
    23    16    18    1
    24    18    19    1
    25    19    20   ar
    26    20    21   ar
    27    21    22   ar
    28    22    23    1
    29    22    24   ar
    30    24    25   ar
    31    11    14    1
    32    14    15    1
    33    26    36    1
    34    36    37    1
    35    36    38    1
    36     7     1   ar
    37    15     8    1
    38    25    19   ar
    39    34    35    1
    40    29    30    1
@<TRIPOS>MOLECULE
*****
 38 40 0 0 0
SMALL
GASTEIGER

@<TRIPOS>ATOM
      1 C          60.8815   88.6199    9.2324 C.ar    1  UNL1        0.0085
      2 C          60.1291   89.5477    8.3253 C.ar    1  UNL1       -0.0057
      3 C          59.3756   88.9999    7.1497 C.ar    1  UNL1       -0.0220
      4 C          58.6232   89.9278    6.2425 C.3     1  UNL1        0.0310
      5 C          59.3745   87.5241    6.8812 C.ar    1  UNL1       -0.0030
      6 C          60.1269   86.5962    7.7883 C.ar    1  UNL1        0.0139
      7 C          60.8804   87.1441    8.9639 C.ar    1  UNL1        0.0454
      8 N          61.6328   86.2162    9.8710 N.pl3   1  UNL1       -0.3043
      9 C          61.3118   86.1753   11.3357 C.3     1  UNL1        0.1123
     10 C          62.0642   85.2474   12.2428 C.3     1  UNL1        0.1148
     11 N          63.1376   84.3603   11.6853 N.am    1  UNL1       -0.2760
     12 C          63.8900   83.4324   12.5924 C.2     1  UNL1        0.2256
     13 O          64.9634   82.5453   12.0348 O.2     1  UNL1       -0.2749
     14 C          63.4586   84.4011   10.2206 C.3     1  UNL1        0.1148
     15 C          62.7062   85.3291    9.3135 C.3     1  UNL1        0.1123
     16 C          63.5689   83.3916   14.0571 C.3     1  UNL1        0.0811
     17 C          62.3716   82.6289   14.5415 C.3     1  UNL1        0.0099
     18 C          64.4453   84.1134   15.0374 C.3     1  UNL1        0.0354
     19 C          64.1185   85.5207   15.4409 C.ar    1  UNL1       -0.0217
     20 C          63.3120   85.7777   16.6792 C.ar    1  UNL1       -0.0034
     21 C          62.9852   87.1850   17.0827 C.ar    1  UNL1        0.0111
     22 C          63.4651   88.3352   16.2479 C.ar    1  UNL1        0.0577
     23 CL         63.1383   89.7425   16.6514 Cl      1  UNL1       -0.0822
     24 C          64.2716   88.0781   15.0096 C.ar    1  UNL1        0.0111
     25 C          64.5983   86.6708   14.6061 C.ar    1  UNL1       -0.0034
     26 C          61.6351   89.1677   10.4080 C.3     1  UNL1        0.0951
     27 C          63.4164   91.0503   10.5887 C.2     1  UNL1        0.2241
     28 O          62.3696   91.9911   11.1071 O.2     1  UNL1       -0.2750
     29 N          63.0492   89.6386   10.2391 N.am    1  UNL1       -0.3021
     30 H          63.7363   89.0210    9.8988 H       1  UNL1        0.1497
     31 C          64.8306   91.5211   10.4198 C.3     1  UNL1        0.1021
     32 C          65.4376   92.4496   11.4295 C.3     1  UNL1        0.0783
     33 C          65.4078   91.3900   13.8015 C.3     1  UNL1        0.0859
     34 N          64.9409   92.4468   12.8448 N.3     1  UNL1       -0.2959
     35 H          65.2008   93.3461   13.2498 H       1  UNL1        0.1233
     36 C          60.9745   89.2448   11.7524 C.3     1  UNL1        0.0223
     37 C          59.4797   89.1791   11.8585 C.3     1  UNL1        0.0020
     38 C          61.8087   89.3875   12.9909 C.3     1  UNL1        0.0020
@<TRIPOS>BOND
     1    33    34    1
     2    34    32    1
     3    32    31    1
     4    31    27    1
     5    27    28    2
     6    27    29   am
     7    26    29    1
     8    26     1    1
     9     1     2   ar
    10     2     3   ar
    11     3     4    1
    12     3     5   ar
    13     5     6   ar
    14     6     7   ar
    15     7     8    1
    16     8     9    1
    17     9    10    1
    18    10    11    1
    19    11    12   am
    20    12    13    2
    21    12    16    1
    22    16    17    1
    23    16    18    1
    24    18    19    1
    25    19    20   ar
    26    20    21   ar
    27    21    22   ar
    28    22    23    1
    29    22    24   ar
    30    24    25   ar
    31    11    14    1
    32    14    15    1
    33    26    36    1
    34    36    37    1
    35    36    38    1
    36     7     1   ar
    37    15     8    1
    38    25    19   ar
    39    34    35    1
    40    29    30    1
@<TRIPOS>MOLECULE
*****
 38 40 0 0 0
SMALL
GASTEIGER

@<TRIPOS>ATOM
      1 C          64.8192   90.5054   14.0388 C.ar    1  UNL1        0.0085
      2 C          65.9927   91.0989   14.7603 C.ar    1  UNL1       -0.0057
      3 C          66.7913   92.1949   14.1191 C.ar    1  UNL1       -0.0220
      4 C          67.9649   92.7883   14.8406 C.3     1  UNL1        0.0310
      5 C          66.4162   92.6974   12.7565 C.ar    1  UNL1       -0.0030
      6 C          65.2427   92.1040   12.0351 C.ar    1  UNL1        0.0139
      7 C          64.4441   91.0080   12.6762 C.ar    1  UNL1        0.0454
      8 N          63.2705   90.4145   11.9547 N.pl3   1  UNL1       -0.3043
      9 C          63.3794   90.0748   10.4978 C.3     1  UNL1        0.1123
     10 C          62.2059   89.4814    9.7763 C.3     1  UNL1        0.1148
     11 N          60.9233   89.2277   10.5117 N.am    1  UNL1       -0.2760
     12 C          59.7498   88.6343    9.7902 C.2     1  UNL1        0.2256
     13 O          58.4674   88.3806   10.5257 O.2     1  UNL1       -0.2749
     14 C          60.8144   89.5674   11.9687 C.3     1  UNL1        0.1148
     15 C          61.9881   90.1608   12.6902 C.3     1  UNL1        0.1123
     16 C          59.8587   88.2945    8.3333 C.3     1  UNL1        0.0811
     17 C          59.7607   89.3784    7.3010 C.3     1  UNL1        0.0099
     18 C          60.0655   86.8709    7.9085 C.3     1  UNL1        0.0354
     19 C          61.1427   86.0462    8.5485 C.ar    1  UNL1       -0.0217
     20 C          61.1574   85.8560   10.0364 C.ar    1  UNL1       -0.0034
     21 C          62.2346   85.0313   10.6764 C.ar    1  UNL1        0.0111
     22 C          63.2971   84.3969    9.8285 C.ar    1  UNL1        0.0577
     23 CL         64.3743   83.5722   10.4685 Cl      1  UNL1       -0.0822
     24 C          63.2823   84.5872    8.3407 C.ar    1  UNL1        0.0111
     25 C          62.2051   85.4118    7.7007 C.ar    1  UNL1       -0.0034
     26 C          64.0206   89.4094   14.6800 C.3     1  UNL1        0.0951
     27 C          64.4021   86.8725   14.2696 C.2     1  UNL1        0.2241
     28 O          65.3954   86.8401   15.3931 O.2     1  UNL1       -0.2750
     29 N          63.7147   88.1572   13.9131 N.am    1  UNL1       -0.3021
     30 H          63.0627   88.1784   13.1757 H       1  UNL1        0.1497
     31 C          64.0961   85.6202   13.5026 C.3     1  UNL1        0.1021
     32 C          64.6198   84.2994   13.9834 C.3     1  UNL1        0.0783
     33 C          62.7772   83.7249   15.7226 C.3     1  UNL1        0.0859
     34 N          64.2252   83.7834   15.3355 N.3     1  UNL1       -0.2959
     35 H          64.5872   82.8323   15.4048 H       1  UNL1        0.1233
     36 C          63.5280   89.5657   16.0881 C.3     1  UNL1        0.0223
     37 C          63.0411   88.3685   16.8496 C.3     1  UNL1        0.0020
     38 C          63.5223   90.9191   16.7349 C.3     1  UNL1        0.0020
@<TRIPOS>BOND
     1    33    34    1
     2    34    32    1
     3    32    31    1
     4    31    27    1
     5    27    28    2
     6    27    29   am
     7    26    29    1
     8    26     1    1
     9     1     2   ar
    10     2     3   ar
    11     3     4    1
    12     3     5   ar
    13     5     6   ar
    14     6     7   ar
    15     7     8    1
    16     8     9    1
    17     9    10    1
    18    10    11    1
    19    11    12   am
    20    12    13    2
    21    12    16    1
    22    16    17    1
    23    16    18    1
    24    18    19    1
    25    19    20   ar
    26    20    21   ar
    27    21    22   ar
    28    22    23    1
    29    22    24   ar
    30    24    25   ar
    31    11    14    1
    32    14    15    1
    33    26    36    1
    34    36    37    1
    35    36    38    1
    36     7     1   ar
    37    15     8    1
    38    25    19   ar
    39    34    35    1
    40    29    30    1
@<TRIPOS>MOLECULE
*****
 38 40 0 0 0
SMALL
GASTEIGER

@<TRIPOS>ATOM
      1 C          62.5910   84.2534   12.0559 C.ar    1  UNL1        0.0085
      2 C          62.2769   82.7873   12.0967 C.ar    1  UNL1       -0.0057
      3 C          62.3954   82.0305   13.3864 C.ar    1  UNL1       -0.0220
      4 C          62.0812   80.5643   13.4272 C.3     1  UNL1        0.0310
      5 C          62.8281   82.7398   14.6352 C.ar    1  UNL1       -0.0030
      6 C          63.1423   84.2060   14.5943 C.ar    1  UNL1        0.0139
      7 C          63.0237   84.9627   13.3046 C.ar    1  UNL1        0.0454
      8 N          63.3379   86.4289   13.2638 N.pl3   1  UNL1       -0.3043
      9 C          64.2373   87.0324   14.3016 C.3     1  UNL1        0.1123
     10 C          64.5515   88.4985   14.2608 C.3     1  UNL1        0.1148
     11 N          63.9663   89.3613   13.1822 N.am    1  UNL1       -0.2760
     12 C          64.2805   90.8274   13.1414 C.2     1  UNL1        0.2256
     13 O          63.6953   91.6901   12.0629 O.2     1  UNL1       -0.2749
     14 C          63.0669   88.7578   12.1445 C.3     1  UNL1        0.1148
     15 C          62.7527   87.2916   12.1853 C.3     1  UNL1        0.1123
     16 C          65.1799   91.4308   14.1792 C.3     1  UNL1        0.0811
     17 C          64.6994   91.5816   15.5921 C.3     1  UNL1        0.0099
     18 C          66.5599   91.8836   13.8041 C.3     1  UNL1        0.0354
     19 C          66.7895   92.5876   12.4996 C.ar    1  UNL1       -0.0217
     20 C          66.2399   93.9667   12.2847 C.ar    1  UNL1       -0.0034
     21 C          66.4695   94.6707   10.9803 C.ar    1  UNL1        0.0111
     22 C          67.2489   93.9957    9.8907 C.ar    1  UNL1        0.0577
     23 CL         67.4785   94.6997    8.5863 Cl      1  UNL1       -0.0822
     24 C          67.7985   92.6167   10.1056 C.ar    1  UNL1        0.0111
     25 C          67.5688   91.9126   11.4101 C.ar    1  UNL1       -0.0034
     26 C          62.4725   85.0102   10.7662 C.3     1  UNL1        0.0951
     27 C          60.6400   86.2559    9.4098 C.2     1  UNL1        0.2241
     28 O          60.7830   85.2575    8.2995 O.2     1  UNL1       -0.2750
     29 N          61.4847   86.1322   10.6431 N.am    1  UNL1       -0.3021
     30 H          61.3908   86.7875   11.3718 H       1  UNL1        0.1497
     31 C          59.6521   87.3780    9.2867 C.3     1  UNL1        0.1021
     32 C          60.0197   88.6214    8.5324 C.3     1  UNL1        0.0783
     33 C          60.0034   90.1987   10.5968 C.3     1  UNL1        0.0859
     34 N          60.5728   89.8074    9.2654 N.3     1  UNL1       -0.2959
     35 H          61.5659   89.6262    9.4116 H       1  UNL1        0.1233
     36 C          63.3417   84.6449    9.5996 C.3     1  UNL1        0.0223
     37 C          63.4149   85.5505    8.4061 C.3     1  UNL1        0.0020
     38 C          64.1379   83.3738    9.6265 C.3     1  UNL1        0.0020
@<TRIPOS>BOND
     1    33    34    1
     2    34    32    1
     3    32    31    1
     4    31    27    1
     5    27    28    2
     6    27    29   am
     7    26    29    1
     8    26     1    1
     9     1     2   ar
    10     2     3   ar
    11     3     4    1
    12     3     5   ar
    13     5     6   ar
    14     6     7   ar
    15     7     8    1
    16     8     9    1
    17     9    10    1
    18    10    11    1
    19    11    12   am
    20    12    13    2
    21    12    16    1
    22    16    17    1
    23    16    18    1
    24    18    19    1
    25    19    20   ar
    26    20    21   ar
    27    21    22   ar
    28    22    23    1
    29    22    24   ar
    30    24    25   ar
    31    11    14    1
    32    14    15    1
    33    26    36    1
    34    36    37    1
    35    36    38    1
    36     7     1   ar
    37    15     8    1
    38    25    19   ar
    39    34    35    1
    40    29    30    1
@<TRIPOS>MOLECULE
*****
 38 40 0 0 0
SMALL
GASTEIGER

@<TRIPOS>ATOM
      1 C          61.4921   87.1706   10.3706 C.ar    1  UNL1        0.0085
      2 C          60.6609   86.4736    9.3346 C.ar    1  UNL1       -0.0057
      3 C          59.7721   87.2701    8.4260 C.ar    1  UNL1       -0.0220
      4 C          58.9409   86.5730    7.3899 C.3     1  UNL1        0.0310
      5 C          59.7143   88.7635    8.5535 C.ar    1  UNL1       -0.0030
      6 C          60.5454   89.4605    9.5895 C.ar    1  UNL1        0.0139
      7 C          61.4343   88.6640   10.4981 C.ar    1  UNL1        0.0454
      8 N          62.2655   89.3611   11.5342 N.pl3   1  UNL1       -0.3043
      9 C          63.5679   89.9968   11.1475 C.3     1  UNL1        0.1123
     10 C          64.3990   90.6938   12.1835 C.3     1  UNL1        0.1148
     11 N          63.9278   90.7551   13.6062 N.am    1  UNL1       -0.2760
     12 C          64.7589   91.4521   14.6422 C.2     1  UNL1        0.2256
     13 O          64.2876   91.5135   16.0649 O.2     1  UNL1       -0.2749
     14 C          62.6253   90.1194   13.9929 C.3     1  UNL1        0.1148
     15 C          61.7942   89.4224   12.9569 C.3     1  UNL1        0.1123
     16 C          66.0613   92.0879   14.2555 C.3     1  UNL1        0.0811
     17 C          67.3385   91.3092   14.3677 C.3     1  UNL1        0.0099
     18 C          66.0866   93.5022   13.7566 C.3     1  UNL1        0.0354
     19 C          66.4157   93.7853   12.3208 C.ar    1  UNL1       -0.0217
     20 C          66.2206   95.1646   11.7645 C.ar    1  UNL1       -0.0034
     21 C          66.5497   95.4477   10.3287 C.ar    1  UNL1        0.0111
     22 C          67.0738   94.3514    9.4491 C.ar    1  UNL1        0.0577
     23 CL         67.4028   94.6345    8.0133 Cl      1  UNL1       -0.0822
     24 C          67.2688   92.9721   10.0054 C.ar    1  UNL1        0.0111
     25 C          66.9397   92.6891   11.4413 C.ar    1  UNL1       -0.0034
     26 C          62.3810   86.3741   11.2792 C.3     1  UNL1        0.0951
     27 C          63.8284   86.2058   13.4302 C.2     1  UNL1        0.2241
     28 O          64.1618   84.7824   13.0944 O.2     1  UNL1       -0.2750
     29 N          62.9379   87.0016   12.5226 N.am    1  UNL1       -0.3021
     30 H          62.7191   87.9359   12.7429 H       1  UNL1        0.1497
     31 C          64.3854   86.8333   14.6736 C.3     1  UNL1        0.1021
     32 C          63.9628   86.3298   16.0218 C.3     1  UNL1        0.0783
     33 C          62.6813   86.7739   18.2378 C.3     1  UNL1        0.0859
     34 N          62.8615   87.0214   16.7694 N.3     1  UNL1       -0.2959
     35 H          63.0131   88.0237   16.6562 H       1  UNL1        0.1233
     36 C          62.7128   84.9502   10.9445 C.3     1  UNL1        0.0223
     37 C          62.2080   83.8378   11.8150 C.3     1  UNL1        0.0020
     38 C          63.5496   84.6385    9.7391 C.3     1  UNL1        0.0020
@<TRIPOS>BOND
     1    33    34    1
     2    34    32    1
     3    32    31    1
     4    31    27    1
     5    27    28    2
     6    27    29   am
     7    26    29    1
     8    26     1    1
     9     1     2   ar
    10     2     3   ar
    11     3     4    1
    12     3     5   ar
    13     5     6   ar
    14     6     7   ar
    15     7     8    1
    16     8     9    1
    17     9    10    1
    18    10    11    1
    19    11    12   am
    20    12    13    2
    21    12    16    1
    22    16    17    1
    23    16    18    1
    24    18    19    1
    25    19    20   ar
    26    20    21   ar
    27    21    22   ar
    28    22    23    1
    29    22    24   ar
    30    24    25   ar
    31    11    14    1
    32    14    15    1
    33    26    36    1
    34    36    37    1
    35    36    38    1
    36     7     1   ar
    37    15     8    1
    38    25    19   ar
    39    34    35    1
    40    29    30    1
@<TRIPOS>MOLECULE
*****
 38 40 0 0 0
SMALL
GASTEIGER

@<TRIPOS>ATOM
      1 C          62.5284   84.2447   12.6505 C.ar    1  UNL1        0.0085
      2 C          62.2564   82.7781   12.4924 C.ar    1  UNL1       -0.0057
      3 C          62.6414   81.8221   13.5822 C.ar    1  UNL1       -0.0220
      4 C          62.3694   80.3554   13.4241 C.3     1  UNL1        0.0310
      5 C          63.2984   82.3327   14.8302 C.ar    1  UNL1       -0.0030
      6 C          63.5704   83.7993   14.9884 C.ar    1  UNL1        0.0139
      7 C          63.1854   84.7553   13.8985 C.ar    1  UNL1        0.0454
      8 N          63.4574   86.2220   14.0567 N.pl3   1  UNL1       -0.3043
      9 C          63.8561   87.0435   12.8666 C.3     1  UNL1        0.1123
     10 C          64.1281   88.5101   13.0248 C.3     1  UNL1        0.1148
     11 N          64.0014   89.1553   14.3730 N.am    1  UNL1       -0.2760
     12 C          64.2734   90.6219   14.5311 C.2     1  UNL1        0.2256
     13 O          64.1466   91.2670   15.8793 O.2     1  UNL1       -0.2749
     14 C          63.6026   88.3338   15.5631 C.3     1  UNL1        0.1148
     15 C          63.3306   86.8672   15.4049 C.3     1  UNL1        0.1123
     16 C          64.6721   91.4433   13.3411 C.3     1  UNL1        0.0811
     17 C          63.7196   91.6149   12.1951 C.3     1  UNL1        0.0099
     18 C          66.0232   92.0932   13.2970 C.3     1  UNL1        0.0354
     19 C          66.4204   92.9181   12.1088 C.ar    1  UNL1       -0.0217
     20 C          67.1100   92.2719   10.9439 C.ar    1  UNL1       -0.0034
     21 C          67.5071   93.0968    9.7557 C.ar    1  UNL1        0.0111
     22 C          67.2146   94.5679    9.7324 C.ar    1  UNL1        0.0577
     23 CL         67.6117   95.3928    8.5441 Cl      1  UNL1       -0.0822
     24 C          66.5250   95.2140   10.8972 C.ar    1  UNL1        0.0111
     25 C          66.1279   94.3891   12.0854 C.ar    1  UNL1       -0.0034
     26 C          62.1433   85.2007   11.5606 C.3     1  UNL1        0.0951
     27 C          61.2757   87.6133   11.1408 C.2     1  UNL1        0.2241
     28 O          62.3969   87.8481   10.1724 O.2     1  UNL1       -0.2750
     29 N          61.1489   86.2896   11.8349 N.am    1  UNL1       -0.3021
     30 H          60.4130   86.1356   12.4704 H       1  UNL1        0.1497
     31 C          60.2812   88.7023   11.4151 C.3     1  UNL1        0.1021
     32 C          60.1841   89.8796   10.4907 C.3     1  UNL1        0.0783
     33 C          59.7311   88.8505    8.1485 C.3     1  UNL1        0.0859
     34 N          60.5522   89.7298    9.0443 N.3     1  UNL1       -0.2959
     35 H          60.5329   90.6649    8.6372 H       1  UNL1        0.1233
     36 C          62.7527   85.0678   10.1965 C.3     1  UNL1        0.0223
     37 C          64.0390   84.3167   10.0196 C.3     1  UNL1        0.0020
     38 C          62.0758   85.6859    9.0091 C.3     1  UNL1        0.0020
@<TRIPOS>BOND
     1    33    34    1
     2    34    32    1
     3    32    31    1
     4    31    27    1
     5    27    28    2
     6    27    29   am
     7    26    29    1
     8    26     1    1
     9     1     2   ar
    10     2     3   ar
    11     3     4    1
    12     3     5   ar
    13     5     6   ar
    14     6     7   ar
    15     7     8    1
    16     8     9    1
    17     9    10    1
    18    10    11    1
    19    11    12   am
    20    12    13    2
    21    12    16    1
    22    16    17    1
    23    16    18    1
    24    18    19    1
    25    19    20   ar
    26    20    21   ar
    27    21    22   ar
    28    22    23    1
    29    22    24   ar
    30    24    25   ar
    31    11    14    1
    32    14    15    1
    33    26    36    1
    34    36    37    1
    35    36    38    1
    36     7     1   ar
    37    15     8    1
    38    25    19   ar
    39    34    35    1
    40    29    30    1
@<TRIPOS>MOLECULE
*****
 38 40 0 0 0
SMALL
GASTEIGER

@<TRIPOS>ATOM
      1 C          61.7504   94.6865    1.0512 C.ar    1  UNL1        0.0085
      2 C          62.9305   94.6408    1.9759 C.ar    1  UNL1       -0.0057
      3 C          63.9870   95.7027    1.8967 C.ar    1  UNL1       -0.0220
      4 C          65.1672   95.6570    2.8215 C.3     1  UNL1        0.0310
      5 C          63.8633   96.8103    0.8928 C.ar    1  UNL1       -0.0030
      6 C          62.6832   96.8560   -0.0320 C.ar    1  UNL1        0.0139
      7 C          61.6267   95.7941    0.0472 C.ar    1  UNL1        0.0454
      8 N          60.4465   95.8398   -0.8775 N.pl3   1  UNL1       -0.3043
      9 C          60.6214   95.5213   -2.3329 C.3     1  UNL1        0.1123
     10 C          59.4413   95.5670   -3.2577 C.3     1  UNL1        0.1148
     11 N          58.0863   95.9312   -2.7271 N.am    1  UNL1       -0.2760
     12 C          56.9062   95.9769   -3.6519 C.2     1  UNL1        0.2256
     13 O          55.5513   96.3411   -3.1213 O.2     1  UNL1       -0.2749
     14 C          57.9115   96.2497   -1.2718 C.3     1  UNL1        0.1148
     15 C          59.0916   96.2040   -0.3470 C.3     1  UNL1        0.1123
     16 C          57.0810   95.6584   -5.1072 C.3     1  UNL1        0.0811
     17 C          56.7636   96.6939   -6.1450 C.3     1  UNL1        0.0099
     18 C          57.5733   94.3045   -5.5248 C.3     1  UNL1        0.0354
     19 C          56.8926   93.0689   -5.0150 C.ar    1  UNL1       -0.0217
     20 C          55.9512   92.3106   -5.9032 C.ar    1  UNL1       -0.0034
     21 C          55.2705   91.0749   -5.3934 C.ar    1  UNL1        0.0111
     22 C          55.5312   90.5976   -3.9954 C.ar    1  UNL1        0.0577
     23 CL         54.8505   89.3620   -3.4857 Cl      1  UNL1       -0.0822
     24 C          56.4726   91.3559   -3.1073 C.ar    1  UNL1        0.0111
     25 C          57.1533   92.5915   -3.6171 C.ar    1  UNL1       -0.0034
     26 C          60.6940   93.6246    1.1304 C.3     1  UNL1        0.0951
     27 C          60.0496   92.7156    3.4774 C.2     1  UNL1        0.2241
     28 O          61.2916   91.8748    3.4928 O.2     1  UNL1       -0.2750
     29 N          59.7507   93.5905    2.2962 N.am    1  UNL1       -0.3021
     30 H          58.9355   94.1424    2.2861 H       1  UNL1        0.1497
     31 C          59.1063   92.6816    4.6432 C.3     1  UNL1        0.1021
     32 C          58.6587   91.3658    5.2076 C.3     1  UNL1        0.0783
     33 C          59.3574   89.4141    6.7736 C.3     1  UNL1        0.0859
     34 N          59.6747   90.3545    5.6489 N.3     1  UNL1       -0.2959
     35 H          59.8893   89.7783    4.8350 H       1  UNL1        0.1233
     36 C          60.5807   92.5968    0.0438 C.3     1  UNL1        0.0223
     37 C          59.2713   92.3878   -0.6575 C.3     1  UNL1        0.0020
     38 C          61.7769   91.7778   -0.3416 C.3     1  UNL1        0.0020
@<TRIPOS>BOND
     1    33    34    1
     2    34    32    1
     3    32    31    1
     4    31    27    1
     5    27    28    2
     6    27    29   am
     7    26    29    1
     8    26     1    1
     9     1     2   ar
    10     2     3   ar
    11     3     4    1
    12     3     5   ar
    13     5     6   ar
    14     6     7   ar
    15     7     8    1
    16     8     9    1
    17     9    10    1
    18    10    11    1
    19    11    12   am
    20    12    13    2
    21    12    16    1
    22    16    17    1
    23    16    18    1
    24    18    19    1
    25    19    20   ar
    26    20    21   ar
    27    21    22   ar
    28    22    23    1
    29    22    24   ar
    30    24    25   ar
    31    11    14    1
    32    14    15    1
    33    26    36    1
    34    36    37    1
    35    36    38    1
    36     7     1   ar
    37    15     8    1
    38    25    19   ar
    39    34    35    1
    40    29    30    1
@<TRIPOS>MOLECULE
*****
 38 40 0 0 0
SMALL
GASTEIGER

@<TRIPOS>ATOM
      1 C          61.9969   94.9321    0.3802 C.ar    1  UNL1        0.0085
      2 C          62.9923   94.9410    1.5022 C.ar    1  UNL1       -0.0057
      3 C          64.4098   95.3584    1.2440 C.ar    1  UNL1       -0.0220
      4 C          65.4052   95.3673    2.3661 C.3     1  UNL1        0.0310
      5 C          64.8317   95.7670   -0.1362 C.ar    1  UNL1       -0.0030
      6 C          63.8363   95.7581   -1.2582 C.ar    1  UNL1        0.0139
      7 C          62.4188   95.3407   -1.0000 C.ar    1  UNL1        0.0454
      8 N          61.4234   95.3319   -2.1221 N.pl3   1  UNL1       -0.3043
      9 C          60.9551   94.0288   -2.6990 C.3     1  UNL1        0.1123
     10 C          59.9597   94.0199   -3.8211 C.3     1  UNL1        0.1148
     11 N          59.4325   95.3141   -4.3662 N.am    1  UNL1       -0.2760
     12 C          58.4370   95.3052   -5.4883 C.2     1  UNL1        0.2256
     13 O          57.9099   96.5994   -6.0334 O.2     1  UNL1       -0.2749
     14 C          59.9007   96.6172   -3.7893 C.3     1  UNL1        0.1148
     15 C          60.8962   96.6260   -2.6672 C.3     1  UNL1        0.1123
     16 C          57.9688   94.0022   -6.0652 C.3     1  UNL1        0.0811
     17 C          58.6104   93.4581   -7.3070 C.3     1  UNL1        0.0099
     18 C          56.8590   93.2432   -5.4002 C.3     1  UNL1        0.0354
     19 C          56.0198   93.9084   -4.3498 C.ar    1  UNL1       -0.0217
     20 C          55.1596   95.0833   -4.7100 C.ar    1  UNL1       -0.0034
     21 C          54.3204   95.7484   -3.6595 C.ar    1  UNL1        0.0111
     22 C          54.3415   95.2386   -2.2489 C.ar    1  UNL1        0.0577
     23 CL         53.5024   95.9038   -1.1985 Cl      1  UNL1       -0.0822
     24 C          55.2017   94.0638   -1.8888 C.ar    1  UNL1        0.0111
     25 C          56.0409   93.3987   -2.9393 C.ar    1  UNL1       -0.0034
     26 C          60.5795   94.5147    0.6384 C.3     1  UNL1        0.0951
     27 C          59.9506   93.1436    2.7537 C.2     1  UNL1        0.2241
     28 O          59.8937   94.4091    3.5570 O.2     1  UNL1       -0.2750
     29 N          60.2935   93.1965    1.2943 N.am    1  UNL1       -0.3021
     30 H          60.3308   92.3659    0.7671 H       1  UNL1        0.1497
     31 C          59.6646   91.8253    3.4097 C.3     1  UNL1        0.1021
     32 C          59.1956   91.7823    4.8338 C.3     1  UNL1        0.0783
     33 C          56.6512   91.2751    4.9713 C.3     1  UNL1        0.0859
     34 N          57.8013   92.2157    5.1776 N.3     1  UNL1       -0.2959
     35 H          57.8055   92.4631    6.1671 H       1  UNL1        0.1233
     36 C          59.4480   95.4155    0.2406 C.3     1  UNL1        0.0223
     37 C          58.3124   94.8766   -0.5780 C.3     1  UNL1        0.0020
     38 C          59.4521   96.8554    0.6613 C.3     1  UNL1        0.0020
@<TRIPOS>BOND
     1    33    34    1
     2    34    32    1
     3    32    31    1
     4    31    27    1
     5    27    28    2
     6    27    29   am
     7    26    29    1
     8    26     1    1
     9     1     2   ar
    10     2     3   ar
    11     3     4    1
    12     3     5   ar
    13     5     6   ar
    14     6     7   ar
    15     7     8    1
    16     8     9    1
    17     9    10    1
    18    10    11    1
    19    11    12   am
    20    12    13    2
    21    12    16    1
    22    16    17    1
    23    16    18    1
    24    18    19    1
    25    19    20   ar
    26    20    21   ar
    27    21    22   ar
    28    22    23    1
    29    22    24   ar
    30    24    25   ar
    31    11    14    1
    32    14    15    1
    33    26    36    1
    34    36    37    1
    35    36    38    1
    36     7     1   ar
    37    15     8    1
    38    25    19   ar
    39    34    35    1
    40    29    30    1
@<TRIPOS>MOLECULE
*****
 38 40 0 0 0
SMALL
GASTEIGER

@<TRIPOS>ATOM
      1 C          62.6137   83.9421   12.1283 C.ar    1  UNL1        0.0085
      2 C          62.2670   82.4867   12.0218 C.ar    1  UNL1       -0.0057
      3 C          62.3330   81.6091   13.2364 C.ar    1  UNL1       -0.0220
      4 C          61.9863   80.1535   13.1298 C.3     1  UNL1        0.0310
      5 C          62.7457   82.1869   14.5577 C.ar    1  UNL1       -0.0030
      6 C          63.0925   83.6423   14.6642 C.ar    1  UNL1        0.0139
      7 C          63.0265   84.5200   13.4495 C.ar    1  UNL1        0.0454
      8 N          63.3732   85.9755   13.5561 N.pl3   1  UNL1       -0.3043
      9 C          63.2032   86.8759   12.3686 C.3     1  UNL1        0.1123
     10 C          63.5499   88.3313   12.4751 C.3     1  UNL1        0.1148
     11 N          64.0666   88.8865   13.7693 N.am    1  UNL1       -0.2760
     12 C          64.4134   90.3419   13.8759 C.2     1  UNL1        0.2256
     13 O          64.9301   90.8970   15.1700 O.2     1  UNL1       -0.2749
     14 C          64.2367   87.9861   14.9569 C.3     1  UNL1        0.1148
     15 C          63.8899   86.5305   14.8503 C.3     1  UNL1        0.1123
     16 C          64.2434   91.2423   12.6883 C.3     1  UNL1        0.0811
     17 C          62.9634   91.2189   11.9065 C.3     1  UNL1        0.0099
     18 C          65.3532   92.1661   12.2825 C.3     1  UNL1        0.0354
     19 C          66.4555   92.4841   13.2488 C.ar    1  UNL1       -0.0217
     20 C          66.2707   93.5709   14.2661 C.ar    1  UNL1       -0.0034
     21 C          67.3730   93.8889   15.2325 C.ar    1  UNL1        0.0111
     22 C          68.6600   93.1201   15.1816 C.ar    1  UNL1        0.0577
     23 CL         69.7623   93.4381   16.1480 Cl      1  UNL1       -0.0822
     24 C          68.8447   92.0333   14.1644 C.ar    1  UNL1        0.0111
     25 C          67.7425   91.7153   13.1980 C.ar    1  UNL1       -0.0034
     26 C          62.5477   84.8197   10.9136 C.3     1  UNL1        0.0951
     27 C          60.7555   86.2447    9.6858 C.2     1  UNL1        0.2241
     28 O          60.8237   85.3167    8.5093 O.2     1  UNL1       -0.2750
     29 N          61.6175   85.9962   10.8880 N.am    1  UNL1       -0.3021
     30 H          61.5728   86.6052   11.6602 H       1  UNL1        0.1497
     31 C          59.8253   87.4212    9.6602 C.3     1  UNL1        0.1021
     32 C          59.9821   88.4785    8.6078 C.3     1  UNL1        0.0783
     33 C          59.1679   89.5913    6.4059 C.3     1  UNL1        0.0859
     34 N          59.1025   88.4638    7.3930 N.3     1  UNL1       -0.2959
     35 H          59.3231   87.6102    6.8800 H       1  UNL1        0.1233
     36 C          63.4119   84.5209    9.7246 C.3     1  UNL1        0.0223
     37 C          63.4157   85.4506    8.5475 C.3     1  UNL1        0.0020
     38 C          64.2723   83.2922    9.7126 C.3     1  UNL1        0.0020
@<TRIPOS>BOND
     1    33    34    1
     2    34    32    1
     3    32    31    1
     4    31    27    1
     5    27    28    2
     6    27    29   am
     7    26    29    1
     8    26     1    1
     9     1     2   ar
    10     2     3   ar
    11     3     4    1
    12     3     5   ar
    13     5     6   ar
    14     6     7   ar
    15     7     8    1
    16     8     9    1
    17     9    10    1
    18    10    11    1
    19    11    12   am
    20    12    13    2
    21    12    16    1
    22    16    17    1
    23    16    18    1
    24    18    19    1
    25    19    20   ar
    26    20    21   ar
    27    21    22   ar
    28    22    23    1
    29    22    24   ar
    30    24    25   ar
    31    11    14    1
    32    14    15    1
    33    26    36    1
    34    36    37    1
    35    36    38    1
    36     7     1   ar
    37    15     8    1
    38    25    19   ar
    39    34    35    1
    40    29    30    1
