@<TRIPOS>MOLECULE
*****
 36 41 0 0 0
SMALL
GASTEIGER

@<TRIPOS>ATOM
      1 C          60.3459   89.1361    9.3385 C.2     1  UNL1        0.1040
      2 N          59.5714   89.4249   10.5901 N.2     1  UNL1       -0.1483
      3 N          59.7858   88.2849   11.5412 N.2     1  UNL1       -0.1520
      4 C          60.6928   87.2916   10.8773 C.2     1  UNL1        0.0864
      5 C          61.2482   85.9761   11.3365 C.3     1  UNL1        0.0739
      6 C          62.1499   85.1868   10.4344 C.2     1  UNL1       -0.0160
      7 C          62.4961   85.7129    9.0730 C.2     1  UNL1       -0.0038
      8 C          61.9406   87.0284    8.6138 C.2     1  UNL1        0.0025
      9 C          61.0390   87.8177    9.5159 C.2     1  UNL1        0.0350
     10 C          62.7053   83.8712   10.8936 C.2     1  UNL1        0.0007
     11 C          63.5086   83.7966   12.1582 C.2     1  UNL1        0.0546
     12 C          64.1244   82.5587   12.7398 C.2     1  UNL1        0.2495
     13 O          64.0451   81.1780   12.1589 O.2     1  UNL1       -0.2698
     14 N          64.8335   82.9438   14.0042 N.am    1  UNL1       -0.2804
     15 C          64.6559   84.4198   14.2041 C.ar    1  UNL1        0.0506
     16 C          65.1340   85.3519   15.2777 C.ar    1  UNL1        0.0147
     17 C          64.7933   86.8112   15.2103 C.ar    1  UNL1        0.0013
     18 C          63.9744   87.3383   14.0693 C.ar    1  UNL1        0.0001
     19 C          63.4963   86.4061   12.9958 C.ar    1  UNL1        0.0014
     20 C          63.8371   84.9468   13.0632 C.ar    1  UNL1        0.0179
     21 H          65.3285   82.3348   14.5986 H       1  UNL1        0.1552
     22 C          59.4892   89.7673    6.9682 C.2     1  UNL1        0.0031
     23 C          60.4152   90.0120    8.1227 C.2     1  UNL1        0.0210
     24 C          59.6972   92.3949    3.3211 C.ar    1  UNL1        0.1318
     25 C          60.9443   91.7581    3.8588 C.ar    1  UNL1        0.0343
     26 C          60.8750   90.8823    5.0745 C.ar    1  UNL1        0.0044
     27 C          59.5585   90.6432    5.7525 C.ar    1  UNL1        0.0193
     28 C          58.3114   91.2799    5.2147 C.ar    1  UNL1        0.1003
     29 N          58.3807   92.1558    3.9990 N.ar    1  UNL1       -0.2292
     30 C          59.9747   95.8982   -1.5421 C.3     1  UNL1        0.0897
     31 N          59.9053   95.0224   -0.3263 N.3     1  UNL1       -0.2686
     32 C          59.1613   93.7211   -0.3809 C.3     1  UNL1        0.0939
     33 C          59.0919   92.8453    0.8349 C.3     1  UNL1        0.1095
     34 N          59.7666   93.2708    2.1053 N.pl3   1  UNL1       -0.2904
     35 C          60.5106   94.5721    2.1598 C.3     1  UNL1        0.1095
     36 C          60.5800   95.4479    0.9440 C.3     1  UNL1        0.0939
@<TRIPOS>BOND
     1    30    31    1
     2    31    32    1
     3    32    33    1
     4    33    34    1
     5    34    24    1
     6    24    25   ar
     7    25    26   ar
     8    26    27   ar
     9    27    22    1
    10    22    23    2
    11    23     1    1
    12     1     2    2
    13     2     3    1
    14     3     4    2
    15     4     5    1
    16     5     6    1
    17     6    10    1
    18    10    11    2
    19    11    12    1
    20    12    13    2
    21    12    14   am
    22    14    15    1
    23    15    16   ar
    24    16    17   ar
    25    17    18   ar
    26    18    19   ar
    27    19    20   ar
    28     6     7    2
    29     7     8    1
    30     8     9    2
    31    27    28   ar
    32    28    29   ar
    33    34    35    1
    34    35    36    1
    35    36    31    1
    36    29    24   ar
    37     9     1    1
    38     9     4    1
    39    20    11    1
    40    20    15   ar
    41    14    21    1
@<TRIPOS>MOLECULE
*****
 36 41 0 0 0
SMALL
GASTEIGER

@<TRIPOS>ATOM
      1 C          59.5889   88.5953    7.4594 C.2     1  UNL1        0.1040
      2 N          59.3427   87.1157    7.4674 N.2     1  UNL1       -0.1483
      3 N          59.6796   86.5972    8.8340 N.2     1  UNL1       -0.1520
      4 C          60.1339   87.7563    9.6706 C.2     1  UNL1        0.0864
      5 C          60.5915   87.8468   11.0962 C.3     1  UNL1        0.0739
      6 C          60.9930   89.1722   11.6723 C.2     1  UNL1       -0.0160
      7 C          60.9370   90.4072   10.8227 C.2     1  UNL1       -0.0038
      8 C          60.4794   90.3167    9.3971 C.2     1  UNL1        0.0025
      9 C          60.0779   88.9912    8.8210 C.2     1  UNL1        0.0350
     10 C          61.4505   89.2628   13.0980 C.2     1  UNL1        0.0007
     11 C          62.6731   90.0599   13.4441 C.2     1  UNL1        0.0546
     12 C          63.2481   90.2407   14.8176 C.2     1  UNL1        0.2495
     13 O          62.7014   89.6561   16.0863 O.2     1  UNL1       -0.2698
     14 N          64.4657   91.1088   14.6999 N.am    1  UNL1       -0.2804
     15 C          64.6433   91.4645   13.2535 C.ar    1  UNL1        0.0506
     16 C          65.6707   92.2949   12.5430 C.ar    1  UNL1        0.0147
     17 C          65.5902   92.4771   11.0563 C.ar    1  UNL1        0.0013
     18 C          64.4822   91.8289   10.2801 C.ar    1  UNL1        0.0001
     19 C          63.4549   90.9985   10.9907 C.ar    1  UNL1        0.0014
     20 C          63.5354   90.8163   12.4774 C.ar    1  UNL1        0.0179
     21 H          65.0464   91.3948   15.4417 H       1  UNL1        0.1552
     22 C          60.5125   90.3748    5.8069 C.2     1  UNL1        0.0031
     23 C          59.3824   89.5172    6.2943 C.2     1  UNL1        0.0210
     24 C          59.8929   93.1404    2.3117 C.ar    1  UNL1        0.1318
     25 C          61.2701   92.6464    2.6422 C.ar    1  UNL1        0.0343
     26 C          61.4767   91.7245    3.8073 C.ar    1  UNL1        0.0044
     27 C          60.3060   91.2967    4.6418 C.ar    1  UNL1        0.0193
     28 C          58.9288   91.7907    4.3112 C.ar    1  UNL1        0.1003
     29 N          58.7223   92.7126    3.1461 N.ar    1  UNL1       -0.2292
     30 C          59.0671   96.8279   -2.3490 C.3     1  UNL1        0.0897
     31 N          59.2735   95.9060   -1.1838 N.3     1  UNL1       -0.2686
     32 C          58.9245   94.4524   -1.3065 C.3     1  UNL1        0.0939
     33 C          59.1310   93.5306   -0.1413 C.3     1  UNL1        0.1095
     34 N          59.6865   94.0624    1.1465 N.pl3   1  UNL1       -0.2904
     35 C          60.0355   95.5160    1.2692 C.3     1  UNL1        0.1095
     36 C          59.8290   96.4379    0.1041 C.3     1  UNL1        0.0939
@<TRIPOS>BOND
     1    30    31    1
     2    31    32    1
     3    32    33    1
     4    33    34    1
     5    34    24    1
     6    24    25   ar
     7    25    26   ar
     8    26    27   ar
     9    27    22    1
    10    22    23    2
    11    23     1    1
    12     1     2    2
    13     2     3    1
    14     3     4    2
    15     4     5    1
    16     5     6    1
    17     6    10    1
    18    10    11    2
    19    11    12    1
    20    12    13    2
    21    12    14   am
    22    14    15    1
    23    15    16   ar
    24    16    17   ar
    25    17    18   ar
    26    18    19   ar
    27    19    20   ar
    28     6     7    2
    29     7     8    1
    30     8     9    2
    31    27    28   ar
    32    28    29   ar
    33    34    35    1
    34    35    36    1
    35    36    31    1
    36    29    24   ar
    37     9     1    1
    38     9     4    1
    39    20    11    1
    40    20    15   ar
    41    14    21    1
@<TRIPOS>MOLECULE
*****
 36 41 0 0 0
SMALL
GASTEIGER

@<TRIPOS>ATOM
      1 C          59.5471   90.6300    5.4650 C.2     1  UNL1        0.1040
      2 N          58.1481   91.1713    5.4721 N.2     1  UNL1       -0.1483
      3 N          58.0761   92.2824    4.4671 N.2     1  UNL1       -0.1520
      4 C          59.4304   92.4279    3.8389 C.2     1  UNL1        0.0864
      5 C          59.9532   93.3583    2.7849 C.3     1  UNL1        0.0739
      6 C          61.3852   93.2675    2.3477 C.2     1  UNL1       -0.0160
      7 C          62.2943   92.2462    2.9645 C.2     1  UNL1       -0.0038
      8 C          61.7715   91.3158    4.0185 C.2     1  UNL1        0.0025
      9 C          60.3395   91.4066    4.4557 C.2     1  UNL1        0.0350
     10 C          61.9081   94.1980    1.2937 C.2     1  UNL1        0.0007
     11 C          61.1734   94.3484   -0.0053 C.2     1  UNL1        0.0546
     12 C          61.5732   95.2358   -1.1467 C.2     1  UNL1        0.2495
     13 O          62.7779   96.1285   -1.1894 O.2     1  UNL1       -0.2698
     14 N          60.5568   95.0738   -2.2378 N.am    1  UNL1       -0.2804
     15 C          59.5288   94.0862   -1.7709 C.ar    1  UNL1        0.0506
     16 C          58.2950   93.5374   -2.4238 C.ar    1  UNL1        0.0147
     17 C          57.4421   92.5401   -1.6969 C.ar    1  UNL1        0.0013
     18 C          57.8233   92.0918   -0.3171 C.ar    1  UNL1        0.0001
     19 C          59.0571   92.6408    0.3358 C.ar    1  UNL1        0.0014
     20 C          59.9099   93.6380   -0.3911 C.ar    1  UNL1        0.0179
     21 H          60.5633   95.5346   -3.1078 H       1  UNL1        0.1552
     22 C          60.0362   89.6300    7.8126 C.2     1  UNL1        0.0031
     23 C          60.0630   89.5089    6.3177 C.2     1  UNL1        0.0210
     24 C          61.5839   86.2668   10.3705 C.ar    1  UNL1        0.1318
     25 C          60.8993   85.9663    9.0701 C.ar    1  UNL1        0.0343
     26 C          60.3834   87.0874    8.2175 C.ar    1  UNL1        0.0044
     27 C          60.5521   88.5089    8.6653 C.ar    1  UNL1        0.0193
     28 C          61.2367   88.8095    9.9657 C.ar    1  UNL1        0.1003
     29 N          61.7526   87.6884   10.8183 N.ar    1  UNL1       -0.2292
     30 C          63.6474   81.7823   13.7811 C.3     1  UNL1        0.0897
     31 N          63.1315   82.9034   12.9284 N.3     1  UNL1       -0.2686
     32 C          62.7234   84.2006   13.5615 C.3     1  UNL1        0.0939
     33 C          62.2076   85.3217   12.7088 C.3     1  UNL1        0.1095
     34 N          62.0998   85.1456   11.2231 N.pl3   1  UNL1       -0.2904
     35 C          62.5079   83.8485   10.5900 C.3     1  UNL1        0.1095
     36 C          63.0238   82.7274   11.4427 C.3     1  UNL1        0.0939
@<TRIPOS>BOND
     1    30    31    1
     2    31    32    1
     3    32    33    1
     4    33    34    1
     5    34    24    1
     6    24    25   ar
     7    25    26   ar
     8    26    27   ar
     9    27    22    1
    10    22    23    2
    11    23     1    1
    12     1     2    2
    13     2     3    1
    14     3     4    2
    15     4     5    1
    16     5     6    1
    17     6    10    1
    18    10    11    2
    19    11    12    1
    20    12    13    2
    21    12    14   am
    22    14    15    1
    23    15    16   ar
    24    16    17   ar
    25    17    18   ar
    26    18    19   ar
    27    19    20   ar
    28     6     7    2
    29     7     8    1
    30     8     9    2
    31    27    28   ar
    32    28    29   ar
    33    34    35    1
    34    35    36    1
    35    36    31    1
    36    29    24   ar
    37     9     1    1
    38     9     4    1
    39    20    11    1
    40    20    15   ar
    41    14    21    1
@<TRIPOS>MOLECULE
*****
 36 41 0 0 0
SMALL
GASTEIGER

@<TRIPOS>ATOM
      1 C          59.3197   88.5341    7.3639 C.2     1  UNL1        0.1040
      2 N          58.3454   87.4072    7.5392 N.2     1  UNL1       -0.1483
      3 N          58.6467   86.7329    8.8448 N.2     1  UNL1       -0.1520
      4 C          59.8073   87.4430    9.4763 C.2     1  UNL1        0.0864
      5 C          60.5390   87.2198   10.7665 C.3     1  UNL1        0.0739
      6 C          61.6867   88.1099   11.1415 C.2     1  UNL1       -0.0160
      7 C          62.1026   89.2231   10.2262 C.2     1  UNL1       -0.0038
      8 C          61.3709   89.4463    8.9360 C.2     1  UNL1        0.0025
      9 C          60.2232   88.5563    8.5611 C.2     1  UNL1        0.0350
     10 C          62.4185   87.8867   12.4317 C.2     1  UNL1        0.0007
     11 C          63.1471   86.5969   12.6673 C.2     1  UNL1        0.0546
     12 C          63.9186   86.2328   13.9010 C.2     1  UNL1        0.2495
     13 O          64.0971   87.0945   15.1158 O.2     1  UNL1       -0.2698
     14 N          64.4805   84.8556   13.7068 N.am    1  UNL1       -0.2804
     15 C          64.0561   84.3685   12.3530 C.ar    1  UNL1        0.0506
     16 C          64.3137   83.0842   11.6223 C.ar    1  UNL1        0.0147
     17 C          63.7471   82.8759   10.2490 C.ar    1  UNL1        0.0013
     18 C          62.9230   83.9522    9.6066 C.ar    1  UNL1        0.0001
     19 C          62.6655   85.2366   10.3374 C.ar    1  UNL1        0.0014
     20 C          63.2321   85.4447   11.7106 C.ar    1  UNL1        0.0179
     21 H          65.0310   84.3586   14.3542 H       1  UNL1        0.1552
     22 C          60.6212   90.2775    5.9437 C.2     1  UNL1        0.0031
     23 C          59.3800   89.4739    6.1964 C.2     1  UNL1        0.0210
     24 C          60.8020   93.0968    2.4411 C.ar    1  UNL1        0.1318
     25 C          61.9811   92.2288    2.7668 C.ar    1  UNL1        0.0343
     26 C          61.9209   91.2890    3.9343 C.ar    1  UNL1        0.0044
     27 C          60.6815   91.2173    4.7761 C.ar    1  UNL1        0.0193
     28 C          59.5023   92.0853    4.4504 C.ar    1  UNL1        0.1003
     29 N          59.5626   93.0251    3.2829 N.ar    1  UNL1       -0.2292
     30 C          61.0437   96.8558   -2.2293 C.3     1  UNL1        0.0897
     31 N          60.9833   95.9161   -1.0617 N.3     1  UNL1       -0.2686
     32 C          62.0177   94.8404   -0.9103 C.3     1  UNL1        0.0939
     33 C          61.9573   93.9007    0.2573 C.3     1  UNL1        0.1095
     34 N          60.8624   94.0366    1.2735 N.pl3   1  UNL1       -0.2904
     35 C          59.8279   95.1122    1.1221 C.3     1  UNL1        0.1095
     36 C          59.8884   96.0519   -0.0455 C.3     1  UNL1        0.0939
@<TRIPOS>BOND
     1    30    31    1
     2    31    32    1
     3    32    33    1
     4    33    34    1
     5    34    24    1
     6    24    25   ar
     7    25    26   ar
     8    26    27   ar
     9    27    22    1
    10    22    23    2
    11    23     1    1
    12     1     2    2
    13     2     3    1
    14     3     4    2
    15     4     5    1
    16     5     6    1
    17     6    10    1
    18    10    11    2
    19    11    12    1
    20    12    13    2
    21    12    14   am
    22    14    15    1
    23    15    16   ar
    24    16    17   ar
    25    17    18   ar
    26    18    19   ar
    27    19    20   ar
    28     6     7    2
    29     7     8    1
    30     8     9    2
    31    27    28   ar
    32    28    29   ar
    33    34    35    1
    34    35    36    1
    35    36    31    1
    36    29    24   ar
    37     9     1    1
    38     9     4    1
    39    20    11    1
    40    20    15   ar
    41    14    21    1
@<TRIPOS>MOLECULE
*****
 36 41 0 0 0
SMALL
GASTEIGER

@<TRIPOS>ATOM
      1 C          60.0237   91.1156    5.1836 C.2     1  UNL1        0.1040
      2 N          58.6313   91.6730    5.2059 N.2     1  UNL1       -0.1483
      3 N          58.4236   92.4520    3.9409 N.2     1  UNL1       -0.1520
      4 C          59.6876   92.3759    3.1369 C.2     1  UNL1        0.0864
      5 C          60.0658   92.9521    1.8046 C.3     1  UNL1        0.0739
      6 C          61.4330   92.7023    1.2404 C.2     1  UNL1       -0.0160
      7 C          62.4219   91.8763    2.0084 C.2     1  UNL1       -0.0038
      8 C          62.0437   91.3002    3.3407 C.2     1  UNL1        0.0025
      9 C          60.6765   91.5500    3.9049 C.2     1  UNL1        0.0350
     10 C          61.8113   93.2784   -0.0919 C.2     1  UNL1        0.0007
     11 C          62.8528   94.3547   -0.1752 C.2     1  UNL1        0.0546
     12 C          63.3319   95.0227   -1.4299 C.2     1  UNL1        0.2495
     13 O          62.8536   94.7319   -2.8215 O.2     1  UNL1       -0.2698
     14 N          64.3732   96.0328   -1.0486 N.am    1  UNL1       -0.2804
     15 C          64.5377   95.9890    0.4418 C.ar    1  UNL1        0.0506
     16 C          65.4218   96.7595    1.3770 C.ar    1  UNL1        0.0147
     17 C          65.3662   96.4928    2.8521 C.ar    1  UNL1        0.0013
     18 C          64.4265   95.4556    3.3919 C.ar    1  UNL1        0.0001
     19 C          63.5424   94.6852    2.4566 C.ar    1  UNL1        0.0014
     20 C          63.5981   94.9518    0.9815 C.ar    1  UNL1        0.0179
     21 H          64.8627   96.6212   -1.6677 H       1  UNL1        0.1552
     22 C          59.7900   89.4536    7.1669 C.2     1  UNL1        0.0031
     23 C          60.6528   90.2718    6.2524 C.2     1  UNL1        0.0210
     24 C          61.6774   86.9224   10.3732 C.ar    1  UNL1        0.1318
     25 C          60.9315   86.2718    9.2461 C.ar    1  UNL1        0.0343
     26 C          60.3023   87.1156    8.1773 C.ar    1  UNL1        0.0044
     27 C          60.4192   88.6098    8.2357 C.ar    1  UNL1        0.0193
     28 C          61.1651   89.2604    9.3628 C.ar    1  UNL1        0.1003
     29 N          61.7943   88.4167   10.4316 N.ar    1  UNL1       -0.2292
     30 C          64.1939   83.5473   14.6483 C.3     1  UNL1        0.0897
     31 N          63.5648   84.3911   13.5795 N.3     1  UNL1       -0.2686
     32 C          63.6686   85.8860   13.6460 C.3     1  UNL1        0.0939
     33 C          63.0395   86.7297   12.5772 C.3     1  UNL1        0.1095
     34 N          62.3065   86.0786   11.4420 N.pl3   1  UNL1       -0.2904
     35 C          62.2027   84.5836   11.3755 C.3     1  UNL1        0.1095
     36 C          62.8319   83.7399   12.4443 C.3     1  UNL1        0.0939
@<TRIPOS>BOND
     1    30    31    1
     2    31    32    1
     3    32    33    1
     4    33    34    1
     5    34    24    1
     6    24    25   ar
     7    25    26   ar
     8    26    27   ar
     9    27    22    1
    10    22    23    2
    11    23     1    1
    12     1     2    2
    13     2     3    1
    14     3     4    2
    15     4     5    1
    16     5     6    1
    17     6    10    1
    18    10    11    2
    19    11    12    1
    20    12    13    2
    21    12    14   am
    22    14    15    1
    23    15    16   ar
    24    16    17   ar
    25    17    18   ar
    26    18    19   ar
    27    19    20   ar
    28     6     7    2
    29     7     8    1
    30     8     9    2
    31    27    28   ar
    32    28    29   ar
    33    34    35    1
    34    35    36    1
    35    36    31    1
    36    29    24   ar
    37     9     1    1
    38     9     4    1
    39    20    11    1
    40    20    15   ar
    41    14    21    1
