@<TRIPOS>MOLECULE
*****
 34 38 0 0 0
SMALL
GASTEIGER

@<TRIPOS>ATOM
      1 N          62.6595   85.4099   10.2290 N.3     1  UNL1       -0.2672
      2 C          62.3096   86.3096    9.0809 C.3     1  UNL1        0.0898
      3 C          62.0690   87.7708    9.3194 C.3     1  UNL1        0.0899
      4 N          62.1784   88.3323   10.7061 N.3     1  UNL1       -0.2665
      5 C          62.5282   87.4326   11.8541 C.3     1  UNL1        0.0899
      6 C          62.7688   85.9714   11.6156 C.3     1  UNL1        0.0898
      7 C          62.9001   83.9486    9.9905 C.3     1  UNL1        0.1201
      8 C          64.2928   83.3962   10.0630 C.3     1  UNL1        0.2226
      9 O          64.7360   82.6366   11.2782 O.3     1  UNL1       -0.4739
     10 C          63.1879   86.0064   17.0659 C.3     1  UNL1        0.0521
     11 C          63.3289   85.0849   15.8907 C.ar    1  UNL1        0.0593
     12 C          64.3129   85.4010   14.8036 C.ar    1  UNL1        0.0148
     13 C          64.4539   84.4796   13.6285 C.ar    1  UNL1        0.0057
     14 C          63.6110   83.2420   13.5404 C.ar    1  UNL1        0.0516
     15 C          63.7520   82.3205   12.3653 C.ar    1  UNL1        0.1400
     16 C          62.9091   81.0830   12.2772 C.ar    1  UNL1        0.0370
     17 C          61.9250   80.7668   13.3643 C.ar    1  UNL1        0.0047
     18 C          61.7840   81.6883   14.5395 C.ar    1  UNL1        0.0193
     19 C          62.6270   82.9259   14.6275 C.ar    1  UNL1        0.0838
     20 N          62.4860   83.8474   15.8027 N.ar    1  UNL1       -0.2496
     21 C          61.9378   89.7936   10.9446 C.3     1  UNL1        0.0993
     22 C          63.0646   90.6755   11.3949 C.ar    1  UNL1       -0.0025
     23 C          63.8356   91.4791   10.3901 C.ar    1  UNL1        0.0299
     24 C          64.9623   92.3609   10.8404 C.ar    1  UNL1        0.1748
     25 F          65.7334   93.1646    9.8355 F       1  UNL1       -0.2009
     26 C          65.3180   92.4391   12.2955 C.ar    1  UNL1        0.1800
     27 C          64.5470   91.6355   13.3003 C.ar    1  UNL1        0.0902
     28 C          63.4203   90.7537   12.8500 C.ar    1  UNL1        0.0152
     29 N          64.9028   91.7138   14.7554 N.am    1  UNL1       -0.2511
     30 C          64.1318   90.9101   15.7602 C.3     1  UNL1        0.1202
     31 C          66.0295   92.5956   15.2057 C.2     1  UNL1        0.2740
     32 O          66.3852   92.6738   16.6608 O.2     1  UNL1       -0.2705
     33 C          66.8006   93.3993   14.2009 C.3     1  UNL1        0.2901
     34 O          66.4448   93.3210   12.7458 O.3     1  UNL1       -0.4621
@<TRIPOS>BOND
     1    10    11    1
     2    11    12   ar
     3    12    13   ar
     4    13    14   ar
     5    14    15   ar
     6    15     9    1
     7     9     8    1
     8     8     7    1
     9     7     1    1
    10     1     2    1
    11     2     3    1
    12     3     4    1
    13     4    21    1
    14    21    22    1
    15    22    23   ar
    16    23    24   ar
    17    24    25    1
    18    24    26   ar
    19    26    27   ar
    20    27    28   ar
    21    27    29    1
    22    29    30    1
    23    29    31   am
    24    31    32    2
    25    31    33    1
    26    33    34    1
    27     4     5    1
    28     5     6    1
    29    15    16   ar
    30    16    17   ar
    31    17    18   ar
    32    18    19   ar
    33    19    20   ar
    34    20    11   ar
    35    19    14   ar
    36     6     1    1
    37    28    22   ar
    38    34    26    1
@<TRIPOS>MOLECULE
*****
 34 38 0 0 0
SMALL
GASTEIGER

@<TRIPOS>ATOM
      1 N          63.8953   84.9555   15.6569 N.3     1  UNL1       -0.2672
      2 C          63.1107   85.6861   16.7061 C.3     1  UNL1        0.0898
      3 C          63.0261   87.1833   16.6724 C.3     1  UNL1        0.0899
      4 N          63.7261   87.9499   15.5896 N.3     1  UNL1       -0.2665
      5 C          64.5106   87.2193   14.5405 C.3     1  UNL1        0.0899
      6 C          64.5952   85.7221   14.5742 C.3     1  UNL1        0.0898
      7 C          63.9800   83.4582   15.6906 C.3     1  UNL1        0.1201
      8 C          63.3979   82.6487   14.5699 C.3     1  UNL1        0.2226
      9 O          62.5151   83.3054   13.5503 O.3     1  UNL1       -0.4739
     10 C          61.0413   88.0112    8.7614 C.3     1  UNL1        0.0521
     11 C          61.5263   86.8687    9.6038 C.ar    1  UNL1        0.0593
     12 C          61.0603   86.7327   11.0231 C.ar    1  UNL1        0.0148
     13 C          61.5453   85.5903   11.8655 C.ar    1  UNL1        0.0057
     14 C          62.4961   84.5838   11.2886 C.ar    1  UNL1        0.0516
     15 C          62.9811   83.4414   12.1310 C.ar    1  UNL1        0.1400
     16 C          63.9319   82.4349   11.5542 C.ar    1  UNL1        0.0370
     17 C          64.3979   82.5709   10.1348 C.ar    1  UNL1        0.0047
     18 C          63.9130   83.7133    9.2924 C.ar    1  UNL1        0.0193
     19 C          62.9621   84.7198    9.8694 C.ar    1  UNL1        0.0838
     20 N          62.4771   85.8623    9.0270 N.ar    1  UNL1       -0.2496
     21 C          63.6414   89.4472   15.5559 C.3     1  UNL1        0.0993
     22 C          63.8327   90.1802   14.2612 C.ar    1  UNL1       -0.0025
     23 C          63.0608   89.7659   13.0437 C.ar    1  UNL1        0.0299
     24 C          63.2521   90.4990   11.7491 C.ar    1  UNL1        0.1748
     25 F          62.4802   90.0847   10.5314 F       1  UNL1       -0.2009
     26 C          64.2152   91.6464   11.6721 C.ar    1  UNL1        0.1800
     27 C          64.9870   92.0607   12.8897 C.ar    1  UNL1        0.0902
     28 C          64.7958   91.3276   14.1842 C.ar    1  UNL1        0.0152
     29 N          65.9501   93.2081   12.8127 N.am    1  UNL1       -0.2511
     30 C          66.7220   93.6224   14.0302 C.3     1  UNL1        0.1202
     31 C          66.1414   93.9412   11.5181 C.2     1  UNL1        0.2740
     32 O          67.1045   95.0885   11.4411 O.2     1  UNL1       -0.2705
     33 C          65.3695   93.5269   10.3004 C.3     1  UNL1        0.2901
     34 O          64.4064   92.3795   10.3774 O.3     1  UNL1       -0.4621
@<TRIPOS>BOND
     1    10    11    1
     2    11    12   ar
     3    12    13   ar
     4    13    14   ar
     5    14    15   ar
     6    15     9    1
     7     9     8    1
     8     8     7    1
     9     7     1    1
    10     1     2    1
    11     2     3    1
    12     3     4    1
    13     4    21    1
    14    21    22    1
    15    22    23   ar
    16    23    24   ar
    17    24    25    1
    18    24    26   ar
    19    26    27   ar
    20    27    28   ar
    21    27    29    1
    22    29    30    1
    23    29    31   am
    24    31    32    2
    25    31    33    1
    26    33    34    1
    27     4     5    1
    28     5     6    1
    29    15    16   ar
    30    16    17   ar
    31    17    18   ar
    32    18    19   ar
    33    19    20   ar
    34    20    11   ar
    35    19    14   ar
    36     6     1    1
    37    28    22   ar
    38    34    26    1
@<TRIPOS>MOLECULE
*****
 34 38 0 0 0
SMALL
GASTEIGER

@<TRIPOS>ATOM
      1 N          63.8887   85.4835   15.5352 N.3     1  UNL1       -0.2672
      2 C          63.1336   85.9842   16.7307 C.3     1  UNL1        0.0898
      3 C          62.9404   87.4580   16.9324 C.3     1  UNL1        0.0899
      4 N          63.5022   88.4310   15.9385 N.3     1  UNL1       -0.2665
      5 C          64.2572   87.9303   14.7431 C.3     1  UNL1        0.0899
      6 C          64.4505   86.4565   14.5414 C.3     1  UNL1        0.0898
      7 C          64.0820   84.0097   15.3335 C.3     1  UNL1        0.1201
      8 C          63.3236   83.2945   14.2549 C.3     1  UNL1        0.2226
      9 O          62.4255   84.0646   13.3327 O.3     1  UNL1       -0.4739
     10 C          60.4217   88.6488    8.6189 C.3     1  UNL1        0.0521
     11 C          61.0109   87.5363    9.4344 C.ar    1  UNL1        0.0593
     12 C          60.6580   87.4023   10.8861 C.ar    1  UNL1        0.0148
     13 C          61.2472   86.2898   11.7016 C.ar    1  UNL1        0.0057
     14 C          62.1892   85.3112   11.0654 C.ar    1  UNL1        0.0516
     15 C          62.7784   84.1986   11.8810 C.ar    1  UNL1        0.1400
     16 C          63.7205   83.2200   11.2448 C.ar    1  UNL1        0.0370
     17 C          64.0734   83.3539    9.7930 C.ar    1  UNL1        0.0047
     18 C          63.4842   84.4664    8.9775 C.ar    1  UNL1        0.0193
     19 C          62.5421   85.4451    9.6137 C.ar    1  UNL1        0.0838
     20 N          61.9529   86.5577    8.7982 N.ar    1  UNL1       -0.2496
     21 C          63.3089   89.9048   16.1402 C.3     1  UNL1        0.0993
     22 C          64.2193   90.8811   15.4560 C.ar    1  UNL1       -0.0025
     23 C          65.2172   91.6640   16.2568 C.ar    1  UNL1        0.0299
     24 C          66.1275   92.6403   15.5726 C.ar    1  UNL1        0.1748
     25 F          67.1255   93.4233   16.3733 F       1  UNL1       -0.2009
     26 C          66.0399   92.8337   14.0877 C.ar    1  UNL1        0.1800
     27 C          65.0420   92.0508   13.2870 C.ar    1  UNL1        0.0902
     28 C          64.1317   91.0745   13.9711 C.ar    1  UNL1        0.0152
     29 N          64.9544   92.2443   11.8021 N.am    1  UNL1       -0.2511
     30 C          63.9565   91.4614   11.0014 C.3     1  UNL1        0.1202
     31 C          65.8647   93.2206   11.1179 C.2     1  UNL1        0.2740
     32 O          65.7771   93.4140    9.6330 O.2     1  UNL1       -0.2705
     33 C          66.8627   94.0035   11.9186 C.3     1  UNL1        0.2901
     34 O          66.9503   93.8101   13.4035 O.3     1  UNL1       -0.4621
@<TRIPOS>BOND
     1    10    11    1
     2    11    12   ar
     3    12    13   ar
     4    13    14   ar
     5    14    15   ar
     6    15     9    1
     7     9     8    1
     8     8     7    1
     9     7     1    1
    10     1     2    1
    11     2     3    1
    12     3     4    1
    13     4    21    1
    14    21    22    1
    15    22    23   ar
    16    23    24   ar
    17    24    25    1
    18    24    26   ar
    19    26    27   ar
    20    27    28   ar
    21    27    29    1
    22    29    30    1
    23    29    31   am
    24    31    32    2
    25    31    33    1
    26    33    34    1
    27     4     5    1
    28     5     6    1
    29    15    16   ar
    30    16    17   ar
    31    17    18   ar
    32    18    19   ar
    33    19    20   ar
    34    20    11   ar
    35    19    14   ar
    36     6     1    1
    37    28    22   ar
    38    34    26    1
@<TRIPOS>MOLECULE
*****
 34 38 0 0 0
SMALL
GASTEIGER

@<TRIPOS>ATOM
      1 N          63.9111   85.6110   15.5964 N.3     1  UNL1       -0.2672
      2 C          63.1884   86.1520   16.7944 C.3     1  UNL1        0.0898
      3 C          63.0001   87.6318   16.9516 C.3     1  UNL1        0.0899
      4 N          63.5344   88.5706   15.9108 N.3     1  UNL1       -0.2665
      5 C          64.2571   88.0296   14.7129 C.3     1  UNL1        0.0899
      6 C          64.4454   86.5498   14.5557 C.3     1  UNL1        0.0898
      7 C          64.0994   84.1312   15.4392 C.3     1  UNL1        0.1201
      8 C          62.9375   83.2025   15.6334 C.3     1  UNL1        0.2226
      9 O          61.9517   82.9922   14.5226 O.3     1  UNL1       -0.4739
     10 C          63.2173   85.8004    8.3775 C.3     1  UNL1        0.0521
     11 C          63.0123   84.9431    9.5912 C.ar    1  UNL1        0.0593
     12 C          62.5668   85.5642   10.8817 C.ar    1  UNL1        0.0148
     13 C          62.3617   84.7069   12.0954 C.ar    1  UNL1        0.0057
     14 C          62.6023   83.2283   12.0184 C.ar    1  UNL1        0.0516
     15 C          62.3972   82.3710   13.2321 C.ar    1  UNL1        0.1400
     16 C          62.6377   80.8924   13.1551 C.ar    1  UNL1        0.0370
     17 C          63.0833   80.2711   11.8645 C.ar    1  UNL1        0.0047
     18 C          63.2883   81.1285   10.6509 C.ar    1  UNL1        0.0193
     19 C          63.0478   82.6071   10.7279 C.ar    1  UNL1        0.0838
     20 N          63.2528   83.4645    9.5143 N.ar    1  UNL1       -0.2496
     21 C          63.3461   90.0504   16.0680 C.3     1  UNL1        0.0993
     22 C          64.2687   91.0026   15.3663 C.ar    1  UNL1       -0.0025
     23 C          65.2856   91.7772   16.1511 C.ar    1  UNL1        0.0299
     24 C          66.2081   92.7293   15.4494 C.ar    1  UNL1        0.1748
     25 F          67.2250   93.5040   16.2342 F       1  UNL1       -0.2009
     26 C          66.1137   92.9068   13.9629 C.ar    1  UNL1        0.1800
     27 C          65.0969   92.1322   13.1781 C.ar    1  UNL1        0.0902
     28 C          64.1744   91.1801   13.8798 C.ar    1  UNL1        0.0152
     29 N          65.0025   92.3097   11.6917 N.am    1  UNL1       -0.2511
     30 C          63.9857   91.5351   10.9069 C.3     1  UNL1        0.1202
     31 C          65.9250   93.2618   10.9900 C.2     1  UNL1        0.2740
     32 O          65.8307   93.4393    9.5035 O.2     1  UNL1       -0.2705
     33 C          66.9420   94.0365   11.7747 C.3     1  UNL1        0.2901
     34 O          67.0363   93.8590   13.2612 O.3     1  UNL1       -0.4621
@<TRIPOS>BOND
     1    10    11    1
     2    11    12   ar
     3    12    13   ar
     4    13    14   ar
     5    14    15   ar
     6    15     9    1
     7     9     8    1
     8     8     7    1
     9     7     1    1
    10     1     2    1
    11     2     3    1
    12     3     4    1
    13     4    21    1
    14    21    22    1
    15    22    23   ar
    16    23    24   ar
    17    24    25    1
    18    24    26   ar
    19    26    27   ar
    20    27    28   ar
    21    27    29    1
    22    29    30    1
    23    29    31   am
    24    31    32    2
    25    31    33    1
    26    33    34    1
    27     4     5    1
    28     5     6    1
    29    15    16   ar
    30    16    17   ar
    31    17    18   ar
    32    18    19   ar
    33    19    20   ar
    34    20    11   ar
    35    19    14   ar
    36     6     1    1
    37    28    22   ar
    38    34    26    1
@<TRIPOS>MOLECULE
*****
 34 38 0 0 0
SMALL
GASTEIGER

@<TRIPOS>ATOM
      1 N          62.8365   85.0127    9.8205 N.3     1  UNL1       -0.2672
      2 C          62.9164   86.2259    8.9419 C.3     1  UNL1        0.0898
      3 C          62.5039   87.5661    9.4746 C.3     1  UNL1        0.0899
      4 N          62.0116   87.6931   10.8859 N.3     1  UNL1       -0.2665
      5 C          61.9318   86.4799   11.7644 C.3     1  UNL1        0.0899
      6 C          62.3442   85.1397   11.2317 C.3     1  UNL1        0.0898
      7 C          63.2490   83.6725    9.2878 C.3     1  UNL1        0.1201
      8 C          64.4553   82.9807    9.8503 C.3     1  UNL1        0.2226
      9 O          64.7999   83.1358   11.3020 O.3     1  UNL1       -0.4739
     10 C          63.0461   86.0348   17.2827 C.3     1  UNL1        0.0521
     11 C          63.2406   85.2015   16.0508 C.ar    1  UNL1        0.0593
     12 C          64.2165   85.6359   14.9978 C.ar    1  UNL1        0.0148
     13 C          64.4110   84.8025   13.7658 C.ar    1  UNL1        0.0057
     14 C          63.6296   83.5347   13.5869 C.ar    1  UNL1        0.0516
     15 C          63.8240   82.7013   12.3550 C.ar    1  UNL1        0.1400
     16 C          63.0427   81.4335   12.1761 C.ar    1  UNL1        0.0370
     17 C          62.0667   80.9990   13.2292 C.ar    1  UNL1        0.0047
     18 C          61.8723   81.8324   14.4611 C.ar    1  UNL1        0.0193
     19 C          62.6537   83.1003   14.6400 C.ar    1  UNL1        0.0838
     20 N          62.4592   83.9337   15.8719 N.ar    1  UNL1       -0.2496
     21 C          61.5991   89.0333   11.4186 C.3     1  UNL1        0.0993
     22 C          62.5650   89.8491   12.2258 C.ar    1  UNL1       -0.0025
     23 C          62.6735   89.6347   13.7064 C.ar    1  UNL1        0.0299
     24 C          63.6393   90.4505   14.5135 C.ar    1  UNL1        0.1748
     25 F          63.7478   90.2361   15.9942 F       1  UNL1       -0.2009
     26 C          64.4967   91.4808   13.8401 C.ar    1  UNL1        0.1800
     27 C          64.3882   91.6952   12.3595 C.ar    1  UNL1        0.0902
     28 C          63.4223   90.8793   11.5523 C.ar    1  UNL1        0.0152
     29 N          65.2455   92.7254   11.6860 N.am    1  UNL1       -0.2511
     30 C          65.1371   92.9398   10.2054 C.3     1  UNL1        0.1202
     31 C          66.2114   93.5412   12.4932 C.2     1  UNL1        0.2740
     32 O          67.0687   94.5715   11.8197 O.2     1  UNL1       -0.2705
     33 C          66.3199   93.3269   13.9739 C.3     1  UNL1        0.2901
     34 O          65.4625   92.2966   14.6473 O.3     1  UNL1       -0.4621
@<TRIPOS>BOND
     1    10    11    1
     2    11    12   ar
     3    12    13   ar
     4    13    14   ar
     5    14    15   ar
     6    15     9    1
     7     9     8    1
     8     8     7    1
     9     7     1    1
    10     1     2    1
    11     2     3    1
    12     3     4    1
    13     4    21    1
    14    21    22    1
    15    22    23   ar
    16    23    24   ar
    17    24    25    1
    18    24    26   ar
    19    26    27   ar
    20    27    28   ar
    21    27    29    1
    22    29    30    1
    23    29    31   am
    24    31    32    2
    25    31    33    1
    26    33    34    1
    27     4     5    1
    28     5     6    1
    29    15    16   ar
    30    16    17   ar
    31    17    18   ar
    32    18    19   ar
    33    19    20   ar
    34    20    11   ar
    35    19    14   ar
    36     6     1    1
    37    28    22   ar
    38    34    26    1
@<TRIPOS>MOLECULE
*****
 34 38 0 0 0
SMALL
GASTEIGER

@<TRIPOS>ATOM
      1 N          63.3995   88.1783   16.3562 N.3     1  UNL1       -0.2672
      2 C          64.0803   88.1399   15.0201 C.3     1  UNL1        0.0898
      3 C          64.2111   86.8405   14.2821 C.3     1  UNL1        0.0899
      4 N          63.6611   85.5796   14.8802 N.3     1  UNL1       -0.2665
      5 C          62.9803   85.6181   16.2162 C.3     1  UNL1        0.0899
      6 C          62.8495   86.9174   16.9542 C.3     1  UNL1        0.0898
      7 C          63.2687   89.4776   17.0942 C.3     1  UNL1        0.1201
      8 C          63.6349   90.7650   16.4169 C.3     1  UNL1        0.2226
      9 O          63.1972   91.0207   15.0051 O.3     1  UNL1       -0.4739
     10 C          69.4072   93.8668   15.7703 C.3     1  UNL1        0.0521
     11 C          68.1026   93.2756   15.3247 C.ar    1  UNL1        0.0593
     12 C          67.1108   92.7945   16.3419 C.ar    1  UNL1        0.0148
     13 C          65.8063   92.2032   15.8963 C.ar    1  UNL1        0.0057
     14 C          65.4935   92.0930   14.4335 C.ar    1  UNL1        0.0516
     15 C          64.1890   91.5017   13.9879 C.ar    1  UNL1        0.1400
     16 C          63.8762   91.3915   12.5250 C.ar    1  UNL1        0.0370
     17 C          64.8681   91.8726   11.5077 C.ar    1  UNL1        0.0047
     18 C          66.1726   92.4639   11.9533 C.ar    1  UNL1        0.0193
     19 C          66.4853   92.5741   13.4162 C.ar    1  UNL1        0.0838
     20 N          67.7899   93.1653   13.8618 N.ar    1  UNL1       -0.2496
     21 C          63.7919   84.2803   14.1422 C.3     1  UNL1        0.0993
     22 C          63.6099   84.2415   12.6537 C.ar    1  UNL1       -0.0025
     23 C          64.3844   83.2568   11.8288 C.ar    1  UNL1        0.0299
     24 C          64.2023   83.2181   10.3404 C.ar    1  UNL1        0.1748
     25 F          64.9768   82.2334    9.5154 F       1  UNL1       -0.2009
     26 C          63.2458   84.1641    9.6770 C.ar    1  UNL1        0.1800
     27 C          62.4714   85.1489   10.5019 C.ar    1  UNL1        0.0902
     28 C          62.6534   85.1876   11.9903 C.ar    1  UNL1        0.0152
     29 N          61.5149   86.0949    9.8384 N.am    1  UNL1       -0.2511
     30 C          60.7404   87.0796   10.6633 C.3     1  UNL1        0.1202
     31 C          61.3328   86.0562    8.3501 C.2     1  UNL1        0.2740
     32 O          60.3763   87.0022    7.6866 O.2     1  UNL1       -0.2705
     33 C          62.1073   85.0714    7.5251 C.3     1  UNL1        0.2901
     34 O          63.0638   84.1254    8.1885 O.3     1  UNL1       -0.4621
@<TRIPOS>BOND
     1    10    11    1
     2    11    12   ar
     3    12    13   ar
     4    13    14   ar
     5    14    15   ar
     6    15     9    1
     7     9     8    1
     8     8     7    1
     9     7     1    1
    10     1     2    1
    11     2     3    1
    12     3     4    1
    13     4    21    1
    14    21    22    1
    15    22    23   ar
    16    23    24   ar
    17    24    25    1
    18    24    26   ar
    19    26    27   ar
    20    27    28   ar
    21    27    29    1
    22    29    30    1
    23    29    31   am
    24    31    32    2
    25    31    33    1
    26    33    34    1
    27     4     5    1
    28     5     6    1
    29    15    16   ar
    30    16    17   ar
    31    17    18   ar
    32    18    19   ar
    33    19    20   ar
    34    20    11   ar
    35    19    14   ar
    36     6     1    1
    37    28    22   ar
    38    34    26    1
@<TRIPOS>MOLECULE
*****
 34 38 0 0 0
SMALL
GASTEIGER

@<TRIPOS>ATOM
      1 N          64.5073   90.9642   13.4890 N.3     1  UNL1       -0.2672
      2 C          63.8691   91.4457   12.2197 C.3     1  UNL1        0.0898
      3 C          62.9691   90.5335   11.4399 C.3     1  UNL1        0.0899
      4 N          62.7075   89.1399   11.9294 N.3     1  UNL1       -0.2665
      5 C          63.3457   88.6585   13.1985 C.3     1  UNL1        0.0899
      6 C          64.2457   89.5707   13.9783 C.3     1  UNL1        0.0898
      7 C          65.4073   91.8764   14.2688 C.3     1  UNL1        0.1201
      8 C          65.7814   93.2176   13.7108 C.3     1  UNL1        0.2226
      9 O          67.1756   93.4606   13.2137 O.3     1  UNL1       -0.4739
     10 C          65.7983   96.8555    7.3975 C.3     1  UNL1        0.0521
     11 C          66.2309   95.9294    8.4954 C.ar    1  UNL1        0.0593
     12 C          65.8780   96.2388    9.9201 C.ar    1  UNL1        0.0148
     13 C          66.3105   95.3127   11.0179 C.ar    1  UNL1        0.0057
     14 C          67.0960   94.0773   10.6911 C.ar    1  UNL1        0.0516
     15 C          67.5285   93.1513   11.7890 C.ar    1  UNL1        0.1400
     16 C          68.3139   91.9159   11.4622 C.ar    1  UNL1        0.0370
     17 C          68.6668   91.6064   10.0375 C.ar    1  UNL1        0.0047
     18 C          68.2343   92.5325    8.9396 C.ar    1  UNL1        0.0193
     19 C          67.4488   93.7680    9.2665 C.ar    1  UNL1        0.0838
     20 N          67.0163   94.6940    8.1686 N.ar    1  UNL1       -0.2496
     21 C          61.8075   88.2277   11.1495 C.3     1  UNL1        0.0993
     22 C          62.2563   86.8354   10.8177 C.ar    1  UNL1       -0.0025
     23 C          62.5371   86.4573    9.3935 C.ar    1  UNL1        0.0299
     24 C          62.9858   85.0650    9.0617 C.ar    1  UNL1        0.1748
     25 F          63.2666   84.6869    7.6375 F       1  UNL1       -0.2009
     26 C          63.1537   84.0508   10.1540 C.ar    1  UNL1        0.1800
     27 C          62.8729   84.4289   11.5782 C.ar    1  UNL1        0.0902
     28 C          62.4242   85.8212   11.9100 C.ar    1  UNL1        0.0152
     29 N          63.0409   83.4147   12.6705 N.am    1  UNL1       -0.2511
     30 C          62.7601   83.7927   14.0946 C.3     1  UNL1        0.1202
     31 C          63.4896   82.0224   12.3387 C.2     1  UNL1        0.2740
     32 O          63.6575   81.0082   13.4310 O.2     1  UNL1       -0.2705
     33 C          63.7704   81.6442   10.9145 C.3     1  UNL1        0.2901
     34 O          63.6025   82.6585    9.8222 O.3     1  UNL1       -0.4621
@<TRIPOS>BOND
     1    10    11    1
     2    11    12   ar
     3    12    13   ar
     4    13    14   ar
     5    14    15   ar
     6    15     9    1
     7     9     8    1
     8     8     7    1
     9     7     1    1
    10     1     2    1
    11     2     3    1
    12     3     4    1
    13     4    21    1
    14    21    22    1
    15    22    23   ar
    16    23    24   ar
    17    24    25    1
    18    24    26   ar
    19    26    27   ar
    20    27    28   ar
    21    27    29    1
    22    29    30    1
    23    29    31   am
    24    31    32    2
    25    31    33    1
    26    33    34    1
    27     4     5    1
    28     5     6    1
    29    15    16   ar
    30    16    17   ar
    31    17    18   ar
    32    18    19   ar
    33    19    20   ar
    34    20    11   ar
    35    19    14   ar
    36     6     1    1
    37    28    22   ar
    38    34    26    1
@<TRIPOS>MOLECULE
*****
 34 38 0 0 0
SMALL
GASTEIGER

@<TRIPOS>ATOM
      1 N          63.9812   85.6539   15.8624 N.3     1  UNL1       -0.2672
      2 C          64.5366   86.5273   14.7767 C.3     1  UNL1        0.0898
      3 C          64.2914   88.0069   14.8053 C.3     1  UNL1        0.0899
      4 N          63.4907   88.6130   15.9197 N.3     1  UNL1       -0.2665
      5 C          62.9353   87.7395   17.0053 C.3     1  UNL1        0.0899
      6 C          63.1805   86.2600   16.9766 C.3     1  UNL1        0.0898
      7 C          64.2264   84.1744   15.8338 C.3     1  UNL1        0.1201
      8 C          63.1764   83.2504   15.2915 C.3     1  UNL1        0.2226
      9 O          62.2590   83.7160   14.1999 O.3     1  UNL1       -0.4739
     10 C          62.9019   78.1085   10.2765 C.3     1  UNL1        0.0521
     11 C          62.8425   79.4723   10.8983 C.ar    1  UNL1        0.0593
     12 C          62.4373   79.6248   12.3344 C.ar    1  UNL1        0.0148
     13 C          62.3779   80.9885   12.9562 C.ar    1  UNL1        0.0057
     14 C          62.7237   82.1998   12.1419 C.ar    1  UNL1        0.0516
     15 C          62.6643   83.5636   12.7637 C.ar    1  UNL1        0.1400
     16 C          63.0101   84.7748   11.9494 C.ar    1  UNL1        0.0370
     17 C          63.4154   84.6224   10.5132 C.ar    1  UNL1        0.0047
     18 C          63.4748   83.2587    9.8914 C.ar    1  UNL1        0.0193
     19 C          63.1289   82.0473   10.7058 C.ar    1  UNL1        0.0838
     20 N          63.1883   80.6836   10.0840 N.ar    1  UNL1       -0.2496
     21 C          63.2454   90.0925   15.9483 C.3     1  UNL1        0.0993
     22 C          64.2003   91.0244   15.2628 C.ar    1  UNL1       -0.0025
     23 C          65.2313   91.7639   16.0629 C.ar    1  UNL1        0.0299
     24 C          66.1861   92.6957   15.3774 C.ar    1  UNL1        0.1748
     25 F          67.2171   93.4353   16.1776 F       1  UNL1       -0.2009
     26 C          66.1099   92.8881   13.8918 C.ar    1  UNL1        0.1800
     27 C          65.0790   92.1487   13.0916 C.ar    1  UNL1        0.0902
     28 C          64.1242   91.2168   13.7771 C.ar    1  UNL1        0.0152
     29 N          65.0028   92.3411   11.6060 N.am    1  UNL1       -0.2511
     30 C          63.9718   91.6016   10.8058 C.3     1  UNL1        0.1202
     31 C          65.9576   93.2729   10.9204 C.2     1  UNL1        0.2740
     32 O          65.8814   93.4653    9.4348 O.2     1  UNL1       -0.2705
     33 C          66.9886   94.0124   11.7206 C.3     1  UNL1        0.2901
     34 O          67.0648   93.8200   13.2063 O.3     1  UNL1       -0.4621
@<TRIPOS>BOND
     1    10    11    1
     2    11    12   ar
     3    12    13   ar
     4    13    14   ar
     5    14    15   ar
     6    15     9    1
     7     9     8    1
     8     8     7    1
     9     7     1    1
    10     1     2    1
    11     2     3    1
    12     3     4    1
    13     4    21    1
    14    21    22    1
    15    22    23   ar
    16    23    24   ar
    17    24    25    1
    18    24    26   ar
    19    26    27   ar
    20    27    28   ar
    21    27    29    1
    22    29    30    1
    23    29    31   am
    24    31    32    2
    25    31    33    1
    26    33    34    1
    27     4     5    1
    28     5     6    1
    29    15    16   ar
    30    16    17   ar
    31    17    18   ar
    32    18    19   ar
    33    19    20   ar
    34    20    11   ar
    35    19    14   ar
    36     6     1    1
    37    28    22   ar
    38    34    26    1
@<TRIPOS>MOLECULE
*****
 34 38 0 0 0
SMALL
GASTEIGER

@<TRIPOS>ATOM
      1 N          63.9221   85.3248   15.8930 N.3     1  UNL1       -0.2672
      2 C          63.1250   86.1009   16.8992 C.3     1  UNL1        0.0898
      3 C          63.0117   87.5916   16.7777 C.3     1  UNL1        0.0899
      4 N          63.6955   88.3063   15.6499 N.3     1  UNL1       -0.2665
      5 C          64.4926   87.5302   14.6438 C.3     1  UNL1        0.0899
      6 C          64.6058   86.0394   14.7653 C.3     1  UNL1        0.0898
      7 C          64.0354   83.8340   16.0146 C.3     1  UNL1        0.1201
      8 C          63.0290   82.9480   15.3418 C.3     1  UNL1        0.2226
      9 O          62.1767   83.4888   14.2323 O.3     1  UNL1       -0.4739
     10 C          62.9277   77.9774   10.1937 C.3     1  UNL1        0.0521
     11 C          62.8544   79.3254   10.8475 C.ar    1  UNL1        0.0593
     12 C          62.3969   79.4447   12.2710 C.ar    1  UNL1        0.0148
     13 C          62.3235   80.7927   12.9248 C.ar    1  UNL1        0.0057
     14 C          62.7076   82.0215   12.1550 C.ar    1  UNL1        0.0516
     15 C          62.6342   83.3695   12.8088 C.ar    1  UNL1        0.1400
     16 C          63.0184   84.5983   12.0390 C.ar    1  UNL1        0.0370
     17 C          63.4759   84.4791   10.6154 C.ar    1  UNL1        0.0047
     18 C          63.5493   83.1310    9.9617 C.ar    1  UNL1        0.0193
     19 C          63.1651   81.9022   10.7315 C.ar    1  UNL1        0.0838
     20 N          63.2385   80.5542   10.0778 N.ar    1  UNL1       -0.2496
     21 C          63.5822   89.7971   15.5284 C.3     1  UNL1        0.0993
     22 C          63.8155   90.4614   14.2039 C.ar    1  UNL1       -0.0025
     23 C          63.0921   89.9752   12.9832 C.ar    1  UNL1        0.0299
     24 C          63.3254   90.6395   11.6587 C.ar    1  UNL1        0.1748
     25 F          62.6019   90.1533   10.4379 F       1  UNL1       -0.2009
     26 C          64.2821   91.7902   11.5550 C.ar    1  UNL1        0.1800
     27 C          65.0055   92.2765   12.7757 C.ar    1  UNL1        0.0902
     28 C          64.7722   91.6121   14.1002 C.ar    1  UNL1        0.0152
     29 N          65.9622   93.4271   12.6720 N.am    1  UNL1       -0.2511
     30 C          66.6856   93.9134   13.8927 C.3     1  UNL1        0.1202
     31 C          66.1954   94.0915   11.3476 C.2     1  UNL1        0.2740
     32 O          67.1521   95.2421   11.2439 O.2     1  UNL1       -0.2705
     33 C          65.4720   93.6052   10.1268 C.3     1  UNL1        0.2901
     34 O          64.5153   92.4546   10.2305 O.3     1  UNL1       -0.4621
@<TRIPOS>BOND
     1    10    11    1
     2    11    12   ar
     3    12    13   ar
     4    13    14   ar
     5    14    15   ar
     6    15     9    1
     7     9     8    1
     8     8     7    1
     9     7     1    1
    10     1     2    1
    11     2     3    1
    12     3     4    1
    13     4    21    1
    14    21    22    1
    15    22    23   ar
    16    23    24   ar
    17    24    25    1
    18    24    26   ar
    19    26    27   ar
    20    27    28   ar
    21    27    29    1
    22    29    30    1
    23    29    31   am
    24    31    32    2
    25    31    33    1
    26    33    34    1
    27     4     5    1
    28     5     6    1
    29    15    16   ar
    30    16    17   ar
    31    17    18   ar
    32    18    19   ar
    33    19    20   ar
    34    20    11   ar
    35    19    14   ar
    36     6     1    1
    37    28    22   ar
    38    34    26    1
