@<TRIPOS>MOLECULE
*****
 32 36 0 0 0
SMALL
GASTEIGER

@<TRIPOS>ATOM
      1 C          60.3463   87.9240    8.8676 C.2     1  UNL1        0.2419
      2 O          59.9444   89.1691    8.1340 O.2     1  UNL1       -0.2734
      3 N          61.2570   88.0146   10.0560 N.am    1  UNL1       -0.2694
      4 C          61.6589   86.7695   10.7896 C.3     1  UNL1        0.1184
      5 C          62.5695   86.8601   11.9780 C.3     1  UNL1        0.1299
      6 N          63.0783   88.1958   12.4330 N.ar    1  UNL1       -0.3005
      7 C          62.6764   89.4409   11.6994 C.ar    1  UNL1        0.1416
      8 N          63.3316   90.6089   12.3751 N.ar    1  UNL1       -0.2279
      9 C          64.1385   90.0856   13.5263 C.ar    1  UNL1        0.1125
     10 C          63.9819   88.5942   13.5620 C.ar    1  UNL1        0.1318
     11 C          61.7657   89.3503   10.5110 C.3     1  UNL1        0.1578
     12 C          64.9580   90.9091   14.4751 C.ar    1  UNL1        0.0204
     13 C          64.3378   91.4449   15.7314 C.ar    1  UNL1        0.0016
     14 C          65.1573   92.2684   16.6802 C.ar    1  UNL1        0.0000
     15 C          66.5970   92.5560   16.3728 C.ar    1  UNL1        0.0000
     16 C          67.2172   92.0201   15.1165 C.ar    1  UNL1        0.0000
     17 C          66.3977   91.1967   14.1677 C.ar    1  UNL1        0.0016
     18 N          58.5855   86.5028    7.5910 N.3     1  UNL1       -0.3135
     19 C          59.8375   86.5883    8.4126 C.3     1  UNL1        0.1517
     20 H          58.3885   85.5262    7.3721 H       1  UNL1        0.1193
     21 H          58.7107   87.0268    6.7249 H       1  UNL1        0.1193
     22 N          64.6174   87.6645   14.5528 N.pl3   1  UNL1       -0.2979
     23 H          65.3634   87.9779   15.1137 H       1  UNL1        0.1536
     24 C          64.1163   86.2573   14.6892 C.ar    1  UNL1        0.0526
     25 C          63.1170   85.9169   15.7549 C.ar    1  UNL1        0.0180
     26 C          62.6158   84.5097   15.8913 C.ar    1  UNL1        0.0415
     27 C          63.1140   83.4428   14.9622 C.ar    1  UNL1        0.1765
     28 C          64.1134   83.7830   13.8965 C.ar    1  UNL1        0.1777
     29 C          64.6145   85.1903   13.7600 C.ar    1  UNL1        0.0548
     30 O          64.4206   82.5296   13.1319 O.3     1  UNL1       -0.4346
     31 C          63.6111   81.4147   13.7250 C.3     1  UNL1        0.4294
     32 O          62.8037   81.9791   14.8562 O.3     1  UNL1       -0.4346
@<TRIPOS>BOND
     1    18    19    1
     2    19     1    1
     3     1     2    2
     4     1     3   am
     5     3     4    1
     6     4     5    1
     7     5     6    1
     8     6     7   ar
     9     7     8   ar
    10     8     9   ar
    11     9    12    1
    12    12    13   ar
    13    13    14   ar
    14    14    15   ar
    15    15    16   ar
    16    16    17   ar
    17     9    10   ar
    18    10    22    1
    19    22    24    1
    20    24    25   ar
    21    25    26   ar
    22    26    27   ar
    23    27    28   ar
    24    28    29   ar
    25    28    30    1
    26    30    31    1
    27    31    32    1
    28     7    11    1
    29    11     3    1
    30    10     6   ar
    31    29    24   ar
    32    17    12   ar
    33    32    27    1
    34    18    20    1
    35    18    21    1
    36    22    23    1
@<TRIPOS>MOLECULE
*****
 32 36 0 0 0
SMALL
GASTEIGER

@<TRIPOS>ATOM
      1 C          65.8497   92.3603   13.7800 C.2     1  UNL1        0.2419
      2 O          66.1207   93.5853   12.9578 O.2     1  UNL1       -0.2734
      3 N          64.9129   91.3062   13.2690 N.am    1  UNL1       -0.2694
      4 C          64.6419   90.0812   14.0912 C.3     1  UNL1        0.1184
      5 C          63.7051   89.0271   13.5802 C.3     1  UNL1        0.1299
      6 N          63.0392   89.1979   12.2471 N.ar    1  UNL1       -0.3005
      7 C          63.3101   90.4228   11.4249 C.ar    1  UNL1        0.1416
      8 N          62.5138   90.3164   10.1581 N.ar    1  UNL1       -0.2279
      9 C          61.7507   89.0256   10.1975 C.ar    1  UNL1        0.1125
     10 C          62.0754   88.3343   11.4885 C.ar    1  UNL1        0.1318
     11 C          64.2470   91.4770   11.9359 C.3     1  UNL1        0.1578
     12 C          60.8253   88.5156    9.1328 C.ar    1  UNL1        0.0204
     13 C          60.1002   89.4818    8.2435 C.ar    1  UNL1        0.0016
     14 C          59.1749   88.9718    7.1788 C.ar    1  UNL1        0.0000
     15 C          58.9746   87.4957    7.0034 C.ar    1  UNL1        0.0000
     16 C          59.6996   86.5295    7.8926 C.ar    1  UNL1        0.0000
     17 C          60.6250   87.0394    8.9573 C.ar    1  UNL1        0.0016
     18 N          65.8664   92.7337   16.3510 N.3     1  UNL1       -0.3135
     19 C          66.5156   92.1895   15.1131 C.3     1  UNL1        0.1517
     20 H          66.4525   92.5292   17.1603 H       1  UNL1        0.1193
     21 H          64.9521   92.2987   16.4747 H       1  UNL1        0.1193
     22 N          61.5318   87.0117   11.9415 N.pl3   1  UNL1       -0.2979
     23 H          60.6613   86.9681   12.3994 H       1  UNL1        0.1536
     24 C          62.3144   85.7557   11.6969 C.ar    1  UNL1        0.0526
     25 C          62.7394   85.3960   10.3040 C.ar    1  UNL1        0.0180
     26 C          63.5220   84.1400   10.0594 C.ar    1  UNL1        0.0415
     27 C          63.8796   83.2435   11.2076 C.ar    1  UNL1        0.1765
     28 C          63.4546   83.6030   12.6005 C.ar    1  UNL1        0.1777
     29 C          62.6719   84.8592   12.8451 C.ar    1  UNL1        0.0548
     30 O          63.9493   82.5322   13.5270 O.3     1  UNL1       -0.4346
     31 C          64.6800   81.5108   12.7068 C.3     1  UNL1        0.4294
     32 O          64.6370   81.9504   11.2733 O.3     1  UNL1       -0.4346
@<TRIPOS>BOND
     1    18    19    1
     2    19     1    1
     3     1     2    2
     4     1     3   am
     5     3     4    1
     6     4     5    1
     7     5     6    1
     8     6     7   ar
     9     7     8   ar
    10     8     9   ar
    11     9    12    1
    12    12    13   ar
    13    13    14   ar
    14    14    15   ar
    15    15    16   ar
    16    16    17   ar
    17     9    10   ar
    18    10    22    1
    19    22    24    1
    20    24    25   ar
    21    25    26   ar
    22    26    27   ar
    23    27    28   ar
    24    28    29   ar
    25    28    30    1
    26    30    31    1
    27    31    32    1
    28     7    11    1
    29    11     3    1
    30    10     6   ar
    31    29    24   ar
    32    17    12   ar
    33    32    27    1
    34    18    20    1
    35    18    21    1
    36    22    23    1
@<TRIPOS>MOLECULE
*****
 32 36 0 0 0
SMALL
GASTEIGER

@<TRIPOS>ATOM
      1 C          61.0066   87.0247   10.1416 C.2     1  UNL1        0.2419
      2 O          61.1788   85.6856   10.7951 O.2     1  UNL1       -0.2734
      3 N          61.7734   88.2104   10.6477 N.am    1  UNL1       -0.2694
      4 C          61.6012   89.5495    9.9942 C.3     1  UNL1        0.1184
      5 C          62.3679   90.7352   10.5003 C.3     1  UNL1        0.1299
      6 N          63.3068   90.5819   11.6600 N.ar    1  UNL1       -0.3005
      7 C          63.4790   89.2428   12.3135 C.ar    1  UNL1        0.1416
      8 N          64.4688   89.3958   13.4302 N.ar    1  UNL1       -0.2279
      9 C          64.9083   90.8295   13.4668 C.ar    1  UNL1        0.1125
     10 C          64.1902   91.5625   12.3727 C.ar    1  UNL1        0.1318
     11 C          62.7123   88.0570   11.8074 C.3     1  UNL1        0.1578
     12 C          65.8931   91.4255   14.4286 C.ar    1  UNL1        0.0204
     13 C          65.4146   92.0192   15.7203 C.ar    1  UNL1        0.0016
     14 C          66.3993   92.6153   16.6821 C.ar    1  UNL1        0.0000
     15 C          67.8625   92.6176   16.3521 C.ar    1  UNL1        0.0000
     16 C          68.3410   92.0239   15.0604 C.ar    1  UNL1        0.0000
     17 C          67.3563   91.4279   14.0986 C.ar    1  UNL1        0.0016
     18 N          59.7746   86.0051    8.0940 N.3     1  UNL1       -0.3135
     19 C          60.0677   87.1780    8.9819 C.3     1  UNL1        0.1517
     20 H          59.1216   86.2870    7.3629 H       1  UNL1        0.1193
     21 H          59.3619   85.2544    8.6476 H       1  UNL1        0.1193
     22 N          64.3307   93.0202   12.0484 N.pl3   1  UNL1       -0.2979
     23 H          63.7439   93.6801   12.4836 H       1  UNL1        0.1536
     24 C          65.3652   93.4726   11.0609 C.ar    1  UNL1        0.0526
     25 C          66.4204   92.5165   10.5891 C.ar    1  UNL1        0.0180
     26 C          67.4550   92.9687    9.6017 C.ar    1  UNL1        0.0415
     27 C          67.4345   94.3772    9.0860 C.ar    1  UNL1        0.1765
     28 C          66.3794   95.3333    9.5578 C.ar    1  UNL1        0.1777
     29 C          65.3447   94.8810   10.5453 C.ar    1  UNL1        0.0548
     30 O          66.6101   96.6505    8.8782 O.3     1  UNL1       -0.4346
     31 C          67.8078   96.5084    7.9865 C.3     1  UNL1        0.4294
     32 O          68.3173   95.1034    8.1149 O.3     1  UNL1       -0.4346
@<TRIPOS>BOND
     1    18    19    1
     2    19     1    1
     3     1     2    2
     4     1     3   am
     5     3     4    1
     6     4     5    1
     7     5     6    1
     8     6     7   ar
     9     7     8   ar
    10     8     9   ar
    11     9    12    1
    12    12    13   ar
    13    13    14   ar
    14    14    15   ar
    15    15    16   ar
    16    16    17   ar
    17     9    10   ar
    18    10    22    1
    19    22    24    1
    20    24    25   ar
    21    25    26   ar
    22    26    27   ar
    23    27    28   ar
    24    28    29   ar
    25    28    30    1
    26    30    31    1
    27    31    32    1
    28     7    11    1
    29    11     3    1
    30    10     6   ar
    31    29    24   ar
    32    17    12   ar
    33    32    27    1
    34    18    20    1
    35    18    21    1
    36    22    23    1
@<TRIPOS>MOLECULE
*****
 32 36 0 0 0
SMALL
GASTEIGER

@<TRIPOS>ATOM
      1 C          59.3711   88.8347    7.0773 C.2     1  UNL1        0.2419
      2 O          59.2596   87.5976    6.2365 O.2     1  UNL1       -0.2734
      3 N          60.1172   88.7929    8.3779 N.am    1  UNL1       -0.2694
      4 C          60.2287   90.0300    9.2187 C.3     1  UNL1        0.1184
      5 C          60.9748   89.9882   10.5193 C.3     1  UNL1        0.1299
      6 N          61.6094   88.7092   10.9791 N.ar    1  UNL1       -0.3005
      7 C          61.4979   87.4721   10.1383 C.ar    1  UNL1        0.1416
      8 N          62.2216   86.3644   10.8451 N.ar    1  UNL1       -0.2279
      9 C          62.7803   86.9171   12.1227 C.ar    1  UNL1        0.1125
     10 C          62.4019   88.3662   12.2056 C.ar    1  UNL1        0.1318
     11 C          60.7518   87.5139    8.8377 C.3     1  UNL1        0.1578
     12 C          63.5775   86.1545   13.1392 C.ar    1  UNL1        0.0204
     13 C          63.6691   84.6598   13.0527 C.ar    1  UNL1        0.0016
     14 C          64.4662   83.8972   14.0691 C.ar    1  UNL1        0.0000
     15 C          65.1717   84.6293   15.1718 C.ar    1  UNL1        0.0000
     16 C          65.0802   86.1240   15.2583 C.ar    1  UNL1        0.0000
     17 C          64.2830   86.8866   14.2419 C.ar    1  UNL1        0.0016
     18 N          59.4469   90.9906    5.6294 N.3     1  UNL1       -0.3135
     19 C          58.7365   90.1137    6.6175 C.3     1  UNL1        0.1517
     20 H          58.8751   91.8116    5.4308 H       1  UNL1        0.1193
     21 H          59.6065   90.4706    4.7665 H       1  UNL1        0.1193
     22 N          62.7543   89.3072   13.3193 N.pl3   1  UNL1       -0.2979
     23 H          62.2699   89.2603   14.1751 H       1  UNL1        0.1536
     24 C          63.8446   90.3197   13.1291 C.ar    1  UNL1        0.0526
     25 C          64.9002   90.4916   14.1809 C.ar    1  UNL1        0.0180
     26 C          65.9905   91.5041   13.9908 C.ar    1  UNL1        0.0415
     27 C          66.0253   92.3446   12.7489 C.ar    1  UNL1        0.1765
     28 C          64.9697   92.1727   11.6971 C.ar    1  UNL1        0.1777
     29 C          63.8793   91.1602   11.8872 C.ar    1  UNL1        0.0548
     30 O          65.2613   93.1370   10.5858 O.3     1  UNL1       -0.4346
     31 C          66.4970   93.9049   10.9508 C.3     1  UNL1        0.4294
     32 O          66.9692   93.4152   12.2877 O.3     1  UNL1       -0.4346
@<TRIPOS>BOND
     1    18    19    1
     2    19     1    1
     3     1     2    2
     4     1     3   am
     5     3     4    1
     6     4     5    1
     7     5     6    1
     8     6     7   ar
     9     7     8   ar
    10     8     9   ar
    11     9    12    1
    12    12    13   ar
    13    13    14   ar
    14    14    15   ar
    15    15    16   ar
    16    16    17   ar
    17     9    10   ar
    18    10    22    1
    19    22    24    1
    20    24    25   ar
    21    25    26   ar
    22    26    27   ar
    23    27    28   ar
    24    28    29   ar
    25    28    30    1
    26    30    31    1
    27    31    32    1
    28     7    11    1
    29    11     3    1
    30    10     6   ar
    31    29    24   ar
    32    17    12   ar
    33    32    27    1
    34    18    20    1
    35    18    21    1
    36    22    23    1
@<TRIPOS>MOLECULE
*****
 32 36 0 0 0
SMALL
GASTEIGER

@<TRIPOS>ATOM
      1 C          72.3086   79.6706   11.4555 C.2     1  UNL1        0.2419
      2 O          71.7735   80.8004   12.2845 O.2     1  UNL1       -0.2734
      3 N          72.4034   78.2919   12.0386 N.am    1  UNL1       -0.2694
      4 C          72.9386   77.1621   11.2097 C.3     1  UNL1        0.1184
      5 C          73.0334   75.7834   11.7928 C.3     1  UNL1        0.1299
      6 N          72.5930   75.5343   13.2049 N.ar    1  UNL1       -0.3005
      7 C          72.0579   76.6641   14.0338 C.ar    1  UNL1        0.1416
      8 N          71.7028   76.1194   15.3857 N.ar    1  UNL1       -0.2279
      9 C          72.0185   74.6530   15.3921 C.ar    1  UNL1        0.1125
     10 C          72.5687   74.2914   14.0443 C.ar    1  UNL1        0.1318
     11 C          71.9631   78.0428   13.4507 C.3     1  UNL1        0.1578
     12 C          71.8190   73.7132   16.5441 C.ar    1  UNL1        0.0204
     13 C          72.8620   73.6101   17.6171 C.ar    1  UNL1        0.0016
     14 C          72.6626   72.6703   18.7690 C.ar    1  UNL1        0.0000
     15 C          71.4201   71.8336   18.8479 C.ar    1  UNL1        0.0000
     16 C          70.3771   71.9368   17.7748 C.ar    1  UNL1        0.0000
     17 C          70.5765   72.8765   16.6229 C.ar    1  UNL1        0.0016
     18 N          71.7328   79.9899    8.9423 N.3     1  UNL1       -0.3135
     19 C          72.7489   79.9196   10.0434 C.3     1  UNL1        0.1517
     20 H          72.2046   80.1642    8.0549 H       1  UNL1        0.1193
     21 H          71.0766   80.7472    9.1329 H       1  UNL1        0.1193
     22 N          73.0160   72.9266   13.6118 N.pl3   1  UNL1       -0.2979
     23 H          73.9695   72.7529   13.4390 H       1  UNL1        0.1536
     24 C          72.0106   71.8264   13.4426 C.ar    1  UNL1        0.0526
     25 C          72.1401   70.5629   14.2407 C.ar    1  UNL1        0.0180
     26 C          71.1347   69.4626   14.0716 C.ar    1  UNL1        0.0415
     27 C          69.9998   69.6257   13.1044 C.ar    1  UNL1        0.1765
     28 C          69.8703   70.8892   12.3064 C.ar    1  UNL1        0.1777
     29 C          70.8757   71.9896   12.4755 C.ar    1  UNL1        0.0548
     30 O          68.6551   70.7651   11.4358 O.3     1  UNL1       -0.4346
     31 C          68.0336   69.4249   11.6959 C.3     1  UNL1        0.4294
     32 O          68.8646   68.7208   12.7271 O.3     1  UNL1       -0.4346
@<TRIPOS>BOND
     1    18    19    1
     2    19     1    1
     3     1     2    2
     4     1     3   am
     5     3     4    1
     6     4     5    1
     7     5     6    1
     8     6     7   ar
     9     7     8   ar
    10     8     9   ar
    11     9    12    1
    12    12    13   ar
    13    13    14   ar
    14    14    15   ar
    15    15    16   ar
    16    16    17   ar
    17     9    10   ar
    18    10    22    1
    19    22    24    1
    20    24    25   ar
    21    25    26   ar
    22    26    27   ar
    23    27    28   ar
    24    28    29   ar
    25    28    30    1
    26    30    31    1
    27    31    32    1
    28     7    11    1
    29    11     3    1
    30    10     6   ar
    31    29    24   ar
    32    17    12   ar
    33    32    27    1
    34    18    20    1
    35    18    21    1
    36    22    23    1
@<TRIPOS>MOLECULE
*****
 32 36 0 0 0
SMALL
GASTEIGER

@<TRIPOS>ATOM
      1 C          62.9546   94.4129    1.4801 C.2     1  UNL1        0.2419
      2 O          63.2758   95.8380    1.8205 O.2     1  UNL1       -0.2734
      3 N          61.6639   94.0786    0.7929 N.am    1  UNL1       -0.2694
      4 C          61.3426   92.6535    0.4524 C.3     1  UNL1        0.1184
      5 C          60.0519   92.3192   -0.2348 C.3     1  UNL1        0.1299
      6 N          59.0824   93.4100   -0.5815 N.ar    1  UNL1       -0.3005
      7 C          59.4036   94.8350   -0.2411 C.ar    1  UNL1        0.1416
      8 N          58.2618   95.6909   -0.7036 N.ar    1  UNL1       -0.2279
      9 C          57.2349   94.7946   -1.3299 C.ar    1  UNL1        0.1125
     10 C          57.7421   93.3850   -1.2545 C.ar    1  UNL1        0.1318
     11 C          60.6944   95.1693    0.4461 C.3     1  UNL1        0.1578
     12 C          55.9299   95.2314   -1.9269 C.ar    1  UNL1        0.0204
     13 C          54.7335   95.4369   -1.0457 C.ar    1  UNL1        0.0016
     14 C          53.4286   95.8736   -1.6426 C.ar    1  UNL1        0.0000
     15 C          53.3200   96.1048   -3.1207 C.ar    1  UNL1        0.0000
     16 C          54.5164   95.8992   -4.0019 C.ar    1  UNL1        0.0000
     17 C          55.8213   95.4625   -3.4050 C.ar    1  UNL1        0.0016
     18 N          65.3775   93.4752    1.4889 N.3     1  UNL1       -0.3135
     19 C          63.9241   93.3222    1.8268 C.3     1  UNL1        0.1517
     20 H          65.8867   92.6457    1.7941 H       1  UNL1        0.1193
     21 H          65.7519   94.2974    1.9625 H       1  UNL1        0.1193
     22 N          57.0333   92.1646   -1.7627 N.pl3   1  UNL1       -0.2979
     23 H          56.7146   91.4811   -1.1298 H       1  UNL1        0.1536
     24 C          56.8102   91.9855   -3.2351 C.ar    1  UNL1        0.0526
     25 C          57.6969   92.6895   -4.2192 C.ar    1  UNL1        0.0180
     26 C          57.4738   92.5104   -5.6916 C.ar    1  UNL1        0.0415
     27 C          56.3640   91.6274   -6.1801 C.ar    1  UNL1        0.1765
     28 C          55.4773   90.9234   -5.1962 C.ar    1  UNL1        0.1777
     29 C          55.7004   91.1024   -3.7236 C.ar    1  UNL1        0.0548
     30 O          54.4715   90.1226   -5.9688 O.3     1  UNL1       -0.4346
     31 C          54.7365   90.3317   -7.4303 C.3     1  UNL1        0.4294
     32 O          55.9062   91.2617   -7.5609 O.3     1  UNL1       -0.4346
@<TRIPOS>BOND
     1    18    19    1
     2    19     1    1
     3     1     2    2
     4     1     3   am
     5     3     4    1
     6     4     5    1
     7     5     6    1
     8     6     7   ar
     9     7     8   ar
    10     8     9   ar
    11     9    12    1
    12    12    13   ar
    13    13    14   ar
    14    14    15   ar
    15    15    16   ar
    16    16    17   ar
    17     9    10   ar
    18    10    22    1
    19    22    24    1
    20    24    25   ar
    21    25    26   ar
    22    26    27   ar
    23    27    28   ar
    24    28    29   ar
    25    28    30    1
    26    30    31    1
    27    31    32    1
    28     7    11    1
    29    11     3    1
    30    10     6   ar
    31    29    24   ar
    32    17    12   ar
    33    32    27    1
    34    18    20    1
    35    18    21    1
    36    22    23    1
