@<TRIPOS>MOLECULE
*****
 42 48 0 0 0
SMALL
GASTEIGER

@<TRIPOS>ATOM
      1 N          60.9161   90.2601    7.2526 N.pl3   1  UNL1       -0.2696
      2 C          61.9763   90.8317    8.1465 C.3     1  UNL1        0.1189
      3 C          62.3360   90.1339    9.4247 C.3     1  UNL1        0.1216
      4 N          61.6354   88.8645    9.8090 N.am    1  UNL1       -0.2403
      5 C          61.9950   88.1667   11.0872 C.2     1  UNL1        0.3078
      6 O          61.2943   86.8973   11.4715 O.2     1  UNL1       -0.2522
      7 N          63.0553   88.7383   11.9810 N.am    1  UNL1       -0.2901
      8 C          60.5750   88.2929    8.9151 C.ar    1  UNL1        0.0689
      9 C          59.8744   87.0235    9.2994 C.ar    1  UNL1        0.0162
     10 C          58.8141   86.4519    8.4056 C.ar    1  UNL1        0.0014
     11 C          58.4544   87.1497    7.1274 C.ar    1  UNL1        0.0014
     12 C          59.1551   88.4191    6.7431 C.ar    1  UNL1        0.0161
     13 C          60.2154   88.9907    7.6369 C.ar    1  UNL1        0.0666
     14 H          63.5152   89.5715   11.7288 H       1  UNL1        0.1509
     15 C          63.4149   88.0405   13.2592 C.3     1  UNL1        0.0731
     16 C          63.4735   86.5423   13.3050 C.3     1  UNL1        0.0204
     17 C          63.7746   87.3427   14.5374 C.3     1  UNL1        0.0018
     18 C          64.1342   86.6449   15.8156 C.3     1  UNL1        0.0024
     19 C          64.0757   88.1430   15.7698 C.3     1  UNL1        0.0018
     20 C          63.7160   88.8408   14.4916 C.3     1  UNL1        0.0204
     21 C          64.0317   85.6734   15.3141 C.3     1  UNL1        0.0285
     22 C          63.8917   84.3464   14.6290 C.3     1  UNL1        0.0884
     23 O          63.9503   82.8483   14.6748 O.3     1  UNL1       -0.3867
     24 C          64.1928   85.1467   15.8613 C.3     1  UNL1        0.0269
     25 C          63.5321   85.0442   13.3508 C.3     1  UNL1        0.0285
     26 H          64.1955   82.5614   15.5684 H       1  UNL1        0.2102
     27 C          59.8371   92.3535    3.4181 C.ar    1  UNL1        0.0675
     28 C          58.7748   92.0546    4.4340 C.ar    1  UNL1        0.0190
     29 C          59.1344   91.3568    5.7122 C.ar    1  UNL1        0.0359
     30 C          60.5564   90.9579    5.9745 C.ar    1  UNL1        0.1356
     31 N          61.6188   91.2568    4.9585 N.ar    1  UNL1       -0.2276
     32 C          61.2592   91.9546    3.6804 C.ar    1  UNL1        0.1147
     33 N          58.7582   94.4469   -0.4164 N.3     1  UNL1       -0.1559
     34 C          59.5845   95.1535    0.6170 C.3     1  UNL1        0.1168
     35 C          59.9441   94.4557    1.8952 C.3     1  UNL1        0.1100
     36 N          59.4775   93.0513    2.1399 N.pl3   1  UNL1       -0.3033
     37 C          58.6512   92.3447    1.1065 C.3     1  UNL1        0.1100
     38 C          58.2916   93.0425   -0.1717 C.3     1  UNL1        0.1168
     39 C          58.0389   95.8424   -2.9728 C.3     1  UNL1        0.1960
     40 S          58.3985   95.1446   -1.6946 S.O2    1  UNL1        0.0458
     41 O          59.8298   95.0715   -2.1373 O.2     1  UNL1       -0.1572
     42 O          56.9672   95.2178   -1.2519 O.2     1  UNL1       -0.1572
@<TRIPOS>BOND
     1    39    40    1
     2    40    41    2
     3    40    42    2
     4    40    33    1
     5    33    34    1
     6    34    35    1
     7    35    36    1
     8    36    27    1
     9    27    28   ar
    10    28    29   ar
    11    29    30   ar
    12    30     1    1
    13     1     2    1
    14     2     3    1
    15     3     4    1
    16     4     5   am
    17     5     6    2
    18     5     7   am
    19    15     7    1
    20    15    16    1
    21    16    17    1
    22    17    18    1
    23    18    19    1
    24    19    20    1
    25    20    21    1
    26    21    22    1
    27    22    23    1
    28    22    24    1
    29    22    25    1
    30     4     8    1
    31     8     9   ar
    32     9    10   ar
    33    10    11   ar
    34    11    12   ar
    35    12    13   ar
    36    30    31   ar
    37    31    32   ar
    38    36    37    1
    39    37    38    1
    40    38    33    1
    41    32    27   ar
    42    13     1    1
    43    20    15    1
    44    13     8   ar
    45    25    16    1
    46    24    18    1
    47     7    14    1
    48    23    26    1
@<TRIPOS>MOLECULE
*****
 42 48 0 0 0
SMALL
GASTEIGER

@<TRIPOS>ATOM
      1 N          60.6817   88.7974    7.4033 N.pl3   1  UNL1       -0.2696
      2 C          61.2400   87.4462    7.0677 C.3     1  UNL1        0.1189
      3 C          61.5083   86.4533    8.1595 C.3     1  UNL1        0.1216
      4 N          61.2184   86.8116    9.5869 N.am    1  UNL1       -0.2403
      5 C          61.4868   85.8186   10.6787 C.2     1  UNL1        0.3078
      6 O          61.1968   86.1769   12.1062 O.2     1  UNL1       -0.2522
      7 N          62.0450   84.4675   10.3432 N.am    1  UNL1       -0.2901
      8 C          60.6601   88.1628    9.9226 C.ar    1  UNL1        0.0689
      9 C          60.3702   88.5210   11.3500 C.ar    1  UNL1        0.0162
     10 C          59.8120   89.8722   11.6856 C.ar    1  UNL1        0.0014
     11 C          59.5436   90.8651   10.5938 C.ar    1  UNL1        0.0014
     12 C          59.8335   90.5069    9.1663 C.ar    1  UNL1        0.0161
     13 C          60.3918   89.1557    8.8307 C.ar    1  UNL1        0.0666
     14 H          62.2353   84.2323    9.4063 H       1  UNL1        0.1509
     15 C          62.3134   83.4746   11.4350 C.3     1  UNL1        0.0731
     16 C          62.3541   83.9252   12.8652 C.3     1  UNL1        0.0204
     17 C          62.5817   82.4816   12.5268 C.3     1  UNL1        0.0018
     18 C          62.8501   81.4887   13.6186 C.3     1  UNL1        0.0024
     19 C          62.8094   81.0382   12.1885 C.3     1  UNL1        0.0018
     20 C          62.5411   82.0311   11.0967 C.3     1  UNL1        0.0204
     21 C          62.7711   82.2893   14.3661 C.3     1  UNL1        0.0285
     22 C          62.6631   83.3828   15.3871 C.3     1  UNL1        0.0884
     23 O          62.7038   83.8334   16.8172 O.3     1  UNL1       -0.3867
     24 C          62.8908   81.9393   15.0488 C.3     1  UNL1        0.0269
     25 C          62.3947   84.3757   14.2953 C.3     1  UNL1        0.0285
     26 H          62.8872   83.0729   17.3907 H       1  UNL1        0.2102
     27 C          59.8766   91.7762    4.1278 C.ar    1  UNL1        0.0675
     28 C          58.7337   91.1604    4.8790 C.ar    1  UNL1        0.0190
     29 C          59.0021   90.1674    5.9709 C.ar    1  UNL1        0.0359
     30 C          60.4133   89.7903    6.3114 C.ar    1  UNL1        0.1356
     31 N          61.5564   90.4061    5.5601 N.ar    1  UNL1       -0.2276
     32 C          61.2880   91.3991    4.4683 C.ar    1  UNL1        0.1147
     33 N          59.0715   94.7549    0.8523 N.3     1  UNL1       -0.1559
     34 C          58.5639   93.3488    0.7287 C.3     1  UNL1        0.1168
     35 C          58.8323   92.3559    1.8205 C.3     1  UNL1        0.1100
     36 N          59.6083   92.7691    3.0359 N.pl3   1  UNL1       -0.3033
     37 C          60.1158   94.1752    3.1595 C.3     1  UNL1        0.1100
     38 C          59.8475   95.1681    2.0677 C.3     1  UNL1        0.1168
     39 C          58.5348   96.7408   -1.3314 C.3     1  UNL1        0.1960
     40 S          58.8032   95.7479   -0.2395 S.O2    1  UNL1        0.0458
     41 O          59.8417   96.6634    0.3378 O.2     1  UNL1       -0.1572
     42 O          57.7647   94.8323   -0.8169 O.2     1  UNL1       -0.1572
@<TRIPOS>BOND
     1    39    40    1
     2    40    41    2
     3    40    42    2
     4    40    33    1
     5    33    34    1
     6    34    35    1
     7    35    36    1
     8    36    27    1
     9    27    28   ar
    10    28    29   ar
    11    29    30   ar
    12    30     1    1
    13     1     2    1
    14     2     3    1
    15     3     4    1
    16     4     5   am
    17     5     6    2
    18     5     7   am
    19    15     7    1
    20    15    16    1
    21    16    17    1
    22    17    18    1
    23    18    19    1
    24    19    20    1
    25    20    21    1
    26    21    22    1
    27    22    23    1
    28    22    24    1
    29    22    25    1
    30     4     8    1
    31     8     9   ar
    32     9    10   ar
    33    10    11   ar
    34    11    12   ar
    35    12    13   ar
    36    30    31   ar
    37    31    32   ar
    38    36    37    1
    39    37    38    1
    40    38    33    1
    41    32    27   ar
    42    13     1    1
    43    20    15    1
    44    13     8   ar
    45    25    16    1
    46    24    18    1
    47     7    14    1
    48    23    26    1
@<TRIPOS>MOLECULE
*****
 42 48 0 0 0
SMALL
GASTEIGER

@<TRIPOS>ATOM
      1 N          60.6697   88.8160    7.6866 N.pl3   1  UNL1       -0.2696
      2 C          61.2785   87.4724    7.4146 C.3     1  UNL1        0.1189
      3 C          61.5414   86.5249    8.5474 C.3     1  UNL1        0.1216
      4 N          61.1955   86.9211    9.9521 N.am    1  UNL1       -0.2403
      5 C          61.4584   85.9736   11.0849 C.2     1  UNL1        0.3078
      6 O          61.1124   86.3697   12.4897 O.2     1  UNL1       -0.2522
      7 N          62.0672   84.6300   10.8129 N.am    1  UNL1       -0.2901
      8 C          60.5866   88.2647   10.2242 C.ar    1  UNL1        0.0689
      9 C          60.2407   88.6608   11.6289 C.ar    1  UNL1        0.0162
     10 C          59.6319   90.0045   11.9009 C.ar    1  UNL1        0.0014
     11 C          59.3690   90.9519   10.7682 C.ar    1  UNL1        0.0014
     12 C          59.7150   90.5558    9.3634 C.ar    1  UNL1        0.0161
     13 C          60.3238   89.2122    9.0914 C.ar    1  UNL1        0.0666
     14 H          62.2942   84.3700    9.8909 H       1  UNL1        0.1509
     15 C          62.3301   83.6825   11.9457 C.3     1  UNL1        0.0731
     16 C          62.3871   82.2054   11.6901 C.3     1  UNL1        0.0204
     17 C          62.5929   82.7350   13.0784 C.3     1  UNL1        0.0018
     18 C          62.8558   81.7875   14.2112 C.3     1  UNL1        0.0024
     19 C          62.7988   83.2644   14.4667 C.3     1  UNL1        0.0018
     20 C          62.5359   84.2119   13.3339 C.3     1  UNL1        0.0204
     21 C          62.7929   80.9394   13.5164 C.3     1  UNL1        0.0285
     22 C          62.7070   79.7810   12.5674 C.3     1  UNL1        0.0884
     23 O          62.7640   78.3040   12.3119 O.3     1  UNL1       -0.3867
     24 C          62.9128   80.3105   13.9557 C.3     1  UNL1        0.0269
     25 C          62.4441   80.7285   11.4347 C.3     1  UNL1        0.0285
     26 H          62.9413   77.8386   13.1443 H       1  UNL1        0.2102
     27 C          59.8811   91.6585    4.2883 C.ar    1  UNL1        0.0675
     28 C          58.7348   90.9967    4.9939 C.ar    1  UNL1        0.0190
     29 C          58.9977   90.0492    6.1267 C.ar    1  UNL1        0.0359
     30 C          60.4069   89.7635    6.5538 C.ar    1  UNL1        0.1356
     31 N          61.5533   90.4253    5.8482 N.ar    1  UNL1       -0.2276
     32 C          61.2904   91.3728    4.7155 C.ar    1  UNL1        0.1147
     33 N          59.0925   94.5010    0.8900 N.3     1  UNL1       -0.1559
     34 C          59.9236   94.9413    2.0586 C.3     1  UNL1        0.1168
     35 C          60.1864   93.9938    3.1914 C.3     1  UNL1        0.1100
     36 N          59.6182   92.6060    3.1556 N.pl3   1  UNL1       -0.3033
     37 C          58.7872   92.1658    1.9870 C.3     1  UNL1        0.1100
     38 C          58.5243   93.1133    0.8543 C.3     1  UNL1        0.1168
     39 C          58.5667   96.3960   -1.3755 C.3     1  UNL1        0.1960
     40 S          58.8296   95.4485   -0.2427 S.O2    1  UNL1        0.0458
     41 O          57.8183   94.4945   -0.8060 O.2     1  UNL1       -0.1572
     42 O          59.8408   96.4025    0.3205 O.2     1  UNL1       -0.1572
@<TRIPOS>BOND
     1    39    40    1
     2    40    41    2
     3    40    42    2
     4    40    33    1
     5    33    34    1
     6    34    35    1
     7    35    36    1
     8    36    27    1
     9    27    28   ar
    10    28    29   ar
    11    29    30   ar
    12    30     1    1
    13     1     2    1
    14     2     3    1
    15     3     4    1
    16     4     5   am
    17     5     6    2
    18     5     7   am
    19    15     7    1
    20    15    16    1
    21    16    17    1
    22    17    18    1
    23    18    19    1
    24    19    20    1
    25    20    21    1
    26    21    22    1
    27    22    23    1
    28    22    24    1
    29    22    25    1
    30     4     8    1
    31     8     9   ar
    32     9    10   ar
    33    10    11   ar
    34    11    12   ar
    35    12    13   ar
    36    30    31   ar
    37    31    32   ar
    38    36    37    1
    39    37    38    1
    40    38    33    1
    41    32    27   ar
    42    13     1    1
    43    20    15    1
    44    13     8   ar
    45    25    16    1
    46    24    18    1
    47     7    14    1
    48    23    26    1
