@<TRIPOS>MOLECULE
*****
 34 38 0 0 0
SMALL
GASTEIGER

@<TRIPOS>ATOM
      1 C          62.0780   86.2147   11.0129 C.ar    1  UNL1        0.0536
      2 C          62.3812   87.6534   11.3095 C.ar    1  UNL1        0.0049
      3 C          61.8790   88.7300   10.3938 C.ar    1  UNL1        0.0325
      4 C          61.0735   88.3679    9.1814 C.ar    1  UNL1        0.1475
      5 O          60.5712   89.4446    8.2656 O.2     1  UNL1       -0.4400
      6 C          59.7657   89.0825    7.0532 C.ar    1  UNL1        0.2024
      7 C          59.4625   87.6437    6.7564 C.ar    1  UNL1        0.0955
      8 C          59.9647   86.5671    7.6722 C.ar    1  UNL1        0.2030
      9 O          59.6615   85.1283    7.3755 O.2     1  UNL1       -0.2863
     10 C          60.7703   86.9292    8.8847 C.ar    1  UNL1        0.0735
     11 C          61.2725   85.8526    9.8004 C.ar    1  UNL1        0.0107
     12 N          59.2635   90.1591    6.1374 N.pl3   1  UNL1       -0.2742
     13 C          57.7887   90.3895    5.9887 C.3     1  UNL1        0.1257
     14 C          57.2865   91.4662    5.0729 C.3     1  UNL1        0.1637
     15 O          58.2590   92.3124    4.3060 O.3     1  UNL1       -0.3501
     16 C          59.7336   92.0820    4.4547 C.3     1  UNL1        0.1637
     17 C          60.2359   91.0053    5.3705 C.3     1  UNL1        0.1257
     18 C          63.8908   82.9245   12.2929 C.3     1  UNL1        0.1152
     19 N          63.3886   84.0012   11.3772 N.am    1  UNL1       -0.2726
     20 C          63.6947   83.9409    9.9099 C.3     1  UNL1        0.1152
     21 C          62.5803   85.1380   11.9286 C.2     1  UNL1        0.2491
     22 O          62.2742   85.1983   13.3958 O.2     1  UNL1       -0.2699
     23 C          62.1822   90.1688   10.6905 C.3     1  UNL1        0.1209
     24 N          62.9431   90.5347   11.9304 N.pl3   1  UNL1       -0.2977
     25 C          62.5571   89.9371   13.2510 C.3     1  UNL1        0.1388
     26 C          63.3180   90.3030   14.4908 C.3     1  UNL1        0.2269
     27 O          64.4648   91.2664   14.4101 O.3     1  UNL1       -0.4701
     28 C          64.8508   91.8640   13.0895 C.ar    1  UNL1        0.1790
     29 C          65.9976   92.8274   13.0088 C.ar    1  UNL1        0.1751
     30 F          66.7585   93.1934   14.2487 F       1  UNL1       -0.2009
     31 C          66.3836   93.4250   11.6882 C.ar    1  UNL1        0.0329
     32 C          65.6228   93.0592   10.4484 C.ar    1  UNL1        0.0038
     33 C          64.4759   92.0957   10.5291 C.ar    1  UNL1        0.0178
     34 C          64.0900   91.4982   11.8497 C.ar    1  UNL1        0.0849
@<TRIPOS>BOND
     1    18    19    1
     2    19    20    1
     3    19    21   am
     4    21    22    2
     5    21     1    1
     6     1     2   ar
     7     2     3   ar
     8     3    23    1
     9    23    24    1
    10    24    25    1
    11    25    26    1
    12    26    27    1
    13    27    28    1
    14    28    29   ar
    15    29    30    1
    16    29    31   ar
    17    31    32   ar
    18    32    33   ar
    19    33    34   ar
    20     3     4   ar
    21     4     5   ar
    22     5     6   ar
    23     6    12    1
    24    12    13    1
    25    13    14    1
    26    14    15    1
    27    15    16    1
    28    16    17    1
    29     6     7   ar
    30     7     8   ar
    31     8     9    2
    32     8    10   ar
    33    10    11   ar
    34    11     1   ar
    35    34    24    1
    36    10     4   ar
    37    34    28   ar
    38    17    12    1
@<TRIPOS>MOLECULE
*****
 34 38 0 0 0
SMALL
GASTEIGER

@<TRIPOS>ATOM
      1 C          61.7428   87.0892   10.0812 C.ar    1  UNL1        0.0536
      2 C          62.2929   86.2643   11.2067 C.ar    1  UNL1        0.0049
      3 C          63.0680   86.9222   12.3096 C.ar    1  UNL1        0.0325
      4 C          63.2929   88.4050   12.2870 C.ar    1  UNL1        0.1475
      5 O          64.0680   89.0630   13.3900 O.2     1  UNL1       -0.4400
      6 C          64.2929   90.5458   13.3674 C.ar    1  UNL1        0.2024
      7 C          63.7428   91.3708   12.2418 C.ar    1  UNL1        0.0955
      8 C          62.9677   90.7129   11.1389 C.ar    1  UNL1        0.2030
      9 O          62.4176   91.5378   10.0134 O.2     1  UNL1       -0.2863
     10 C          62.7428   89.2300   11.1615 C.ar    1  UNL1        0.0735
     11 C          61.9677   88.5721   10.0586 C.ar    1  UNL1        0.0107
     12 N          65.0680   91.2037   14.4703 N.pl3   1  UNL1       -0.2742
     13 C          66.5449   91.4211   14.3228 C.3     1  UNL1        0.1257
     14 C          67.3200   92.0790   15.4257 C.3     1  UNL1        0.1637
     15 O          66.6182   92.5195   16.6761 O.3     1  UNL1       -0.3501
     16 C          65.1414   92.3021   16.8236 C.3     1  UNL1        0.1637
     17 C          64.3663   91.6442   15.7207 C.3     1  UNL1        0.1257
     18 C          60.9017   84.9196    6.8663 C.3     1  UNL1        0.1152
     19 N          61.6768   85.5775    7.9693 N.am    1  UNL1       -0.2726
     20 C          63.1610   85.3816    8.0631 C.3     1  UNL1        0.1152
     21 C          60.9677   86.4313    8.9783 C.2     1  UNL1        0.2491
     22 O          59.4836   86.6272    8.8844 O.2     1  UNL1       -0.2699
     23 C          63.6182   86.0972   13.4352 C.3     1  UNL1        0.1209
     24 N          63.0976   84.7107   13.6728 N.pl3   1  UNL1       -0.2977
     25 C          62.3541   84.3951   14.9368 C.3     1  UNL1        0.1388
     26 C          61.8335   83.0085   15.1744 C.3     1  UNL1        0.2269
     27 O          62.0565   81.9375   14.1481 O.3     1  UNL1       -0.4701
     28 C          62.8001   82.2531   12.8842 C.ar    1  UNL1        0.1790
     29 C          63.0231   81.1821   11.8579 C.ar    1  UNL1        0.1751
     30 F          62.5026   79.7955   12.0956 F       1  UNL1       -0.2009
     31 C          63.7667   81.4977   10.5940 C.ar    1  UNL1        0.0329
     32 C          64.2872   82.8842   10.3563 C.ar    1  UNL1        0.0038
     33 C          64.0642   83.9552   11.3826 C.ar    1  UNL1        0.0178
     34 C          63.3206   83.6396   12.6465 C.ar    1  UNL1        0.0849
@<TRIPOS>BOND
     1    18    19    1
     2    19    20    1
     3    19    21   am
     4    21    22    2
     5    21     1    1
     6     1     2   ar
     7     2     3   ar
     8     3    23    1
     9    23    24    1
    10    24    25    1
    11    25    26    1
    12    26    27    1
    13    27    28    1
    14    28    29   ar
    15    29    30    1
    16    29    31   ar
    17    31    32   ar
    18    32    33   ar
    19    33    34   ar
    20     3     4   ar
    21     4     5   ar
    22     5     6   ar
    23     6    12    1
    24    12    13    1
    25    13    14    1
    26    14    15    1
    27    15    16    1
    28    16    17    1
    29     6     7   ar
    30     7     8   ar
    31     8     9    2
    32     8    10   ar
    33    10    11   ar
    34    11     1   ar
    35    34    24    1
    36    10     4   ar
    37    34    28   ar
    38    17    12    1
@<TRIPOS>MOLECULE
*****
 34 38 0 0 0
SMALL
GASTEIGER

@<TRIPOS>ATOM
      1 C          62.0071   86.2278   11.0840 C.ar    1  UNL1        0.0536
      2 C          62.0443   87.6689   11.4983 C.ar    1  UNL1        0.0049
      3 C          61.4645   88.7223   10.6015 C.ar    1  UNL1        0.0325
      4 C          60.8476   88.3346    9.2904 C.ar    1  UNL1        0.1475
      5 O          60.2679   89.3880    8.3936 O.2     1  UNL1       -0.4400
      6 C          59.6510   89.0003    7.0825 C.ar    1  UNL1        0.2024
      7 C          59.6138   87.5591    6.6681 C.ar    1  UNL1        0.0955
      8 C          60.1936   86.5057    7.5649 C.ar    1  UNL1        0.2030
      9 O          60.1565   85.0646    7.1506 O.2     1  UNL1       -0.2863
     10 C          60.8105   86.8935    8.8761 C.ar    1  UNL1        0.0735
     11 C          61.3903   85.8401    9.7728 C.ar    1  UNL1        0.0107
     12 N          59.0712   90.0537    6.1857 N.pl3   1  UNL1       -0.2742
     13 C          59.9790   90.9863    5.4398 C.3     1  UNL1        0.1257
     14 C          59.3993   92.0397    4.5430 C.3     1  UNL1        0.1637
     15 O          57.9117   92.1605    4.3921 O.3     1  UNL1       -0.3501
     16 C          57.0040   91.2280    5.1381 C.3     1  UNL1        0.1637
     17 C          57.5838   90.1746    6.0348 C.3     1  UNL1        0.1257
     18 C          63.9889   83.0098   12.2952 C.3     1  UNL1        0.1152
     19 N          63.4091   84.0632   11.3984 N.am    1  UNL1       -0.2726
     20 C          63.6517   84.0054    9.9192 C.3     1  UNL1        0.1152
     21 C          62.5869   85.1744   11.9807 C.2     1  UNL1        0.2491
     22 O          62.3444   85.2322   13.4598 O.2     1  UNL1       -0.2699
     23 C          61.5017   90.1635   11.0159 C.3     1  UNL1        0.1209
     24 N          62.8188   90.8488   11.2294 N.pl3   1  UNL1       -0.2977
     25 C          63.4761   91.5800   10.0965 C.3     1  UNL1        0.1388
     26 C          64.7933   92.2653   10.3101 C.3     1  UNL1        0.2269
     27 O          65.4530   92.2194   11.6564 O.3     1  UNL1       -0.4701
     28 C          64.7957   91.4882   12.7892 C.ar    1  UNL1        0.1790
     29 C          65.4554   91.4424   14.1355 C.ar    1  UNL1        0.1751
     30 F          66.7726   92.1277   14.3490 F       1  UNL1       -0.2009
     31 C          64.7981   90.7112   15.2683 C.ar    1  UNL1        0.0329
     32 C          63.4810   90.0259   15.0549 C.ar    1  UNL1        0.0038
     33 C          62.8213   90.0718   13.7086 C.ar    1  UNL1        0.0178
     34 C          63.4786   90.8030   12.5757 C.ar    1  UNL1        0.0849
@<TRIPOS>BOND
     1    18    19    1
     2    19    20    1
     3    19    21   am
     4    21    22    2
     5    21     1    1
     6     1     2   ar
     7     2     3   ar
     8     3    23    1
     9    23    24    1
    10    24    25    1
    11    25    26    1
    12    26    27    1
    13    27    28    1
    14    28    29   ar
    15    29    30    1
    16    29    31   ar
    17    31    32   ar
    18    32    33   ar
    19    33    34   ar
    20     3     4   ar
    21     4     5   ar
    22     5     6   ar
    23     6    12    1
    24    12    13    1
    25    13    14    1
    26    14    15    1
    27    15    16    1
    28    16    17    1
    29     6     7   ar
    30     7     8   ar
    31     8     9    2
    32     8    10   ar
    33    10    11   ar
    34    11     1   ar
    35    34    24    1
    36    10     4   ar
    37    34    28   ar
    38    17    12    1
@<TRIPOS>MOLECULE
*****
 34 38 0 0 0
SMALL
GASTEIGER

@<TRIPOS>ATOM
      1 C          64.0322   89.7189   15.0630 C.ar    1  UNL1        0.0536
      2 C          63.8550   89.5900   13.5792 C.ar    1  UNL1        0.0049
      3 C          63.5833   88.2464   12.9702 C.ar    1  UNL1        0.0325
      4 C          63.4888   87.0317   13.8450 C.ar    1  UNL1        0.1475
      5 O          63.2172   85.6881   13.2360 O.2     1  UNL1       -0.4400
      6 C          63.1227   84.4733   14.1109 C.ar    1  UNL1        0.2024
      7 C          63.3000   84.6022   15.5948 C.ar    1  UNL1        0.0955
      8 C          63.5717   85.9458   16.2038 C.ar    1  UNL1        0.2030
      9 O          63.7490   86.0746   17.6877 O.2     1  UNL1       -0.2863
     10 C          63.6661   87.1606   15.3289 C.ar    1  UNL1        0.0735
     11 C          63.9378   88.5042   15.9379 C.ar    1  UNL1        0.0107
     12 N          62.8510   83.1297   13.5019 N.pl3   1  UNL1       -0.2742
     13 C          63.3080   82.8336   12.1041 C.3     1  UNL1        0.1257
     14 C          63.0363   81.4900   11.4951 C.3     1  UNL1        0.1637
     15 O          62.3077   80.4425   12.2838 O.3     1  UNL1       -0.3501
     16 C          61.8508   80.7387   13.6815 C.3     1  UNL1        0.1637
     17 C          62.1225   82.0823   14.2905 C.3     1  UNL1        0.1257
     18 C          65.8648   93.1151   15.9891 C.3     1  UNL1        0.1152
     19 N          65.5931   91.7715   15.3800 N.am    1  UNL1       -0.2726
     20 C          66.6107   91.1368   14.4790 C.3     1  UNL1        0.1152
     21 C          64.3039   91.0625   15.6721 C.2     1  UNL1        0.2491
     22 O          63.2864   91.6972   16.5731 O.2     1  UNL1       -0.2699
     23 C          63.4060   88.1176   11.4862 C.3     1  UNL1        0.1209
     24 N          62.0453   88.2810   10.8764 N.pl3   1  UNL1       -0.2977
     25 C          61.1070   89.3250   11.4052 C.3     1  UNL1        0.1388
     26 C          59.7462   89.4884   10.7953 C.3     1  UNL1        0.2269
     27 O          59.3240   88.6078    9.6568 O.3     1  UNL1       -0.4701
     28 C          60.2624   87.5639    9.1281 C.ar    1  UNL1        0.1790
     29 C          59.8401   86.6833    7.9895 C.ar    1  UNL1        0.1751
     30 F          58.4794   86.8467    7.3797 F       1  UNL1       -0.2009
     31 C          60.7785   85.6394    7.4608 C.ar    1  UNL1        0.0329
     32 C          62.1391   85.4759    8.0706 C.ar    1  UNL1        0.0038
     33 C          62.5614   86.3565    9.2091 C.ar    1  UNL1        0.0178
     34 C          61.6230   87.4005    9.7378 C.ar    1  UNL1        0.0849
@<TRIPOS>BOND
     1    18    19    1
     2    19    20    1
     3    19    21   am
     4    21    22    2
     5    21     1    1
     6     1     2   ar
     7     2     3   ar
     8     3    23    1
     9    23    24    1
    10    24    25    1
    11    25    26    1
    12    26    27    1
    13    27    28    1
    14    28    29   ar
    15    29    30    1
    16    29    31   ar
    17    31    32   ar
    18    32    33   ar
    19    33    34   ar
    20     3     4   ar
    21     4     5   ar
    22     5     6   ar
    23     6    12    1
    24    12    13    1
    25    13    14    1
    26    14    15    1
    27    15    16    1
    28    16    17    1
    29     6     7   ar
    30     7     8   ar
    31     8     9    2
    32     8    10   ar
    33    10    11   ar
    34    11     1   ar
    35    34    24    1
    36    10     4   ar
    37    34    28   ar
    38    17    12    1
@<TRIPOS>MOLECULE
*****
 34 38 0 0 0
SMALL
GASTEIGER

@<TRIPOS>ATOM
      1 C          62.1467   88.2453   11.2006 C.ar    1  UNL1        0.0536
      2 C          62.7343   87.5001   12.3622 C.ar    1  UNL1        0.0049
      3 C          63.7713   88.1546   13.2260 C.ar    1  UNL1        0.0325
      4 C          64.2208   89.5543   12.9281 C.ar    1  UNL1        0.1475
      5 O          65.2578   90.2088   13.7919 O.2     1  UNL1       -0.4400
      6 C          65.7073   91.6085   13.4941 C.ar    1  UNL1        0.2024
      7 C          65.1197   92.3538   12.3325 C.ar    1  UNL1        0.0955
      8 C          64.0826   91.6993   11.4687 C.ar    1  UNL1        0.2030
      9 O          63.4950   92.4445   10.3071 O.2     1  UNL1       -0.2863
     10 C          63.6332   90.2995   11.7665 C.ar    1  UNL1        0.0735
     11 C          62.5961   89.6450   10.9027 C.ar    1  UNL1        0.0107
     12 N          66.7443   92.2631   14.3579 N.pl3   1  UNL1       -0.2742
     13 C          66.8885   93.7562   14.3558 C.3     1  UNL1        0.1257
     14 C          67.9255   94.4107   15.2196 C.3     1  UNL1        0.1637
     15 O          68.8184   93.5721   16.0855 O.3     1  UNL1       -0.3501
     16 C          68.6742   92.0791   16.0876 C.3     1  UNL1        0.1637
     17 C          67.6371   91.4246   15.2238 C.3     1  UNL1        0.1257
     18 C          60.4913   86.0126    8.3677 C.3     1  UNL1        0.1152
     19 N          61.5283   86.6672    9.2315 N.am    1  UNL1       -0.2726
     20 C          62.9842   86.3981    8.9900 C.3     1  UNL1        0.1152
     21 C          61.1096   87.5907   10.3368 C.2     1  UNL1        0.2491
     22 O          59.6539   87.8598   10.5782 O.2     1  UNL1       -0.2699
     23 C          64.3589   87.4093   14.3876 C.3     1  UNL1        0.1209
     24 N          63.5905   86.2913   15.0275 N.pl3   1  UNL1       -0.2977
     25 C          62.9801   86.4812   16.3844 C.3     1  UNL1        0.1388
     26 C          62.2116   85.3630   17.0243 C.3     1  UNL1        0.2269
     27 O          62.0536   84.0551   16.3072 O.3     1  UNL1       -0.4701
     28 C          62.6640   83.8652   14.9502 C.ar    1  UNL1        0.1790
     29 C          62.5060   82.5573   14.2331 C.ar    1  UNL1        0.1751
     30 F          61.7376   81.4391   14.8730 F       1  UNL1       -0.2009
     31 C          63.1164   82.3674   12.8762 C.ar    1  UNL1        0.0329
     32 C          63.8848   83.4854   12.2363 C.ar    1  UNL1        0.0038
     33 C          64.0428   84.7934   12.9534 C.ar    1  UNL1        0.0178
     34 C          63.4324   84.9833   14.3104 C.ar    1  UNL1        0.0849
@<TRIPOS>BOND
     1    18    19    1
     2    19    20    1
     3    19    21   am
     4    21    22    2
     5    21     1    1
     6     1     2   ar
     7     2     3   ar
     8     3    23    1
     9    23    24    1
    10    24    25    1
    11    25    26    1
    12    26    27    1
    13    27    28    1
    14    28    29   ar
    15    29    30    1
    16    29    31   ar
    17    31    32   ar
    18    32    33   ar
    19    33    34   ar
    20     3     4   ar
    21     4     5   ar
    22     5     6   ar
    23     6    12    1
    24    12    13    1
    25    13    14    1
    26    14    15    1
    27    15    16    1
    28    16    17    1
    29     6     7   ar
    30     7     8   ar
    31     8     9    2
    32     8    10   ar
    33    10    11   ar
    34    11     1   ar
    35    34    24    1
    36    10     4   ar
    37    34    28   ar
    38    17    12    1
@<TRIPOS>MOLECULE
*****
 34 38 0 0 0
SMALL
GASTEIGER

@<TRIPOS>ATOM
      1 C          61.0805   86.2130    8.9449 C.ar    1  UNL1        0.0536
      2 C          61.9769   85.4268    9.8550 C.ar    1  UNL1        0.0049
      3 C          62.5654   86.0760   11.0724 C.ar    1  UNL1        0.0325
      4 C          62.2575   87.5114   11.3799 C.ar    1  UNL1        0.1475
      5 O          62.8459   88.1606   12.5974 O.2     1  UNL1       -0.4400
      6 C          62.5380   89.5961   12.9048 C.ar    1  UNL1        0.2024
      7 C          61.6416   90.3825   11.9947 C.ar    1  UNL1        0.0955
      8 C          61.0531   89.7333   10.7773 C.ar    1  UNL1        0.2030
      9 O          60.1567   90.5195    9.8672 O.2     1  UNL1       -0.2863
     10 C          61.3611   88.2977   10.4698 C.ar    1  UNL1        0.0735
     11 C          60.7726   87.6485    9.2524 C.ar    1  UNL1        0.0107
     12 N          63.1265   90.2453   14.1223 N.pl3   1  UNL1       -0.2742
     13 C          64.0688   91.4030   13.9735 C.3     1  UNL1        0.1257
     14 C          64.6573   92.0522   15.1910 C.3     1  UNL1        0.1637
     15 O          64.3034   91.5437   16.5572 O.3     1  UNL1       -0.3501
     16 C          63.3612   90.3862   16.7059 C.3     1  UNL1        0.1637
     17 C          62.7727   89.7370   15.4884 C.3     1  UNL1        0.1257
     18 C          60.7817   84.1337    5.5779 C.3     1  UNL1        0.1152
     19 N          61.3702   84.7829    6.7954 N.am    1  UNL1       -0.2726
     20 C          62.8370   84.6512    7.0807 C.3     1  UNL1        0.1152
     21 C          60.4920   85.5638    7.7275 C.2     1  UNL1        0.2491
     22 O          59.0254   85.6956    7.4421 O.2     1  UNL1       -0.2699
     23 C          63.4618   85.2896   11.9825 C.3     1  UNL1        0.1209
     24 N          62.8894   84.2031   12.8437 N.pl3   1  UNL1       -0.2977
     25 C          62.3962   84.5216   14.2241 C.3     1  UNL1        0.1388
     26 C          61.8238   83.4350   15.0853 C.3     1  UNL1        0.2269
     27 O          61.7446   82.0300   14.5662 O.3     1  UNL1       -0.4701
     28 C          62.2378   81.7114   13.1859 C.ar    1  UNL1        0.1790
     29 C          62.1585   80.3064   12.6668 C.ar    1  UNL1        0.1751
     30 F          61.5861   79.2198   13.5280 F       1  UNL1       -0.2009
     31 C          62.6517   79.9879   11.2864 C.ar    1  UNL1        0.0329
     32 C          63.2241   81.0744   10.4252 C.ar    1  UNL1        0.0038
     33 C          63.3034   82.4794   10.9443 C.ar    1  UNL1        0.0178
     34 C          62.8102   82.7980   12.3246 C.ar    1  UNL1        0.0849
@<TRIPOS>BOND
     1    18    19    1
     2    19    20    1
     3    19    21   am
     4    21    22    2
     5    21     1    1
     6     1     2   ar
     7     2     3   ar
     8     3    23    1
     9    23    24    1
    10    24    25    1
    11    25    26    1
    12    26    27    1
    13    27    28    1
    14    28    29   ar
    15    29    30    1
    16    29    31   ar
    17    31    32   ar
    18    32    33   ar
    19    33    34   ar
    20     3     4   ar
    21     4     5   ar
    22     5     6   ar
    23     6    12    1
    24    12    13    1
    25    13    14    1
    26    14    15    1
    27    15    16    1
    28    16    17    1
    29     6     7   ar
    30     7     8   ar
    31     8     9    2
    32     8    10   ar
    33    10    11   ar
    34    11     1   ar
    35    34    24    1
    36    10     4   ar
    37    34    28   ar
    38    17    12    1
@<TRIPOS>MOLECULE
*****
 34 38 0 0 0
SMALL
GASTEIGER

@<TRIPOS>ATOM
      1 C          62.4603   83.3641   13.7135 C.ar    1  UNL1        0.0536
      2 C          62.6781   84.1394   12.4480 C.ar    1  UNL1        0.0049
      3 C          63.0821   85.5825   12.5127 C.ar    1  UNL1        0.0325
      4 C          63.2683   86.2503   13.8428 C.ar    1  UNL1        0.1475
      5 O          63.6723   87.6934   13.9075 O.2     1  UNL1       -0.4400
      6 C          63.8585   88.3613   15.2377 C.ar    1  UNL1        0.2024
      7 C          63.6406   87.5859   16.5032 C.ar    1  UNL1        0.0955
      8 C          63.2366   86.1428   16.4385 C.ar    1  UNL1        0.2030
      9 O          63.0187   85.3675   17.7040 O.2     1  UNL1       -0.2863
     10 C          63.0504   85.4750   15.1083 C.ar    1  UNL1        0.0735
     11 C          62.6464   84.0319   15.0436 C.ar    1  UNL1        0.0107
     12 N          64.2625   89.8044   15.3024 N.pl3   1  UNL1       -0.2742
     13 C          63.7968   90.6633   16.4406 C.3     1  UNL1        0.1257
     14 C          64.2008   92.1064   16.5053 C.3     1  UNL1        0.1637
     15 O          65.0705   92.6906   15.4318 O.3     1  UNL1       -0.3501
     16 C          65.5362   91.8317   14.2936 C.3     1  UNL1        0.1637
     17 C          65.1321   90.3886   14.2289 C.3     1  UNL1        0.1257
     18 C          62.4548   79.5103   12.7658 C.3     1  UNL1        0.1152
     19 N          62.8588   80.9534   12.8305 N.am    1  UNL1       -0.2726
     20 C          64.0655   81.4289   12.0768 C.3     1  UNL1        0.1152
     21 C          62.0562   81.9210   13.6488 C.2     1  UNL1        0.2491
     22 O          60.8497   81.4454   14.4023 O.2     1  UNL1       -0.2699
     23 C          63.3000   86.3578   11.2472 C.3     1  UNL1        0.1209
     24 N          62.2789   87.3598   10.7963 N.pl3   1  UNL1       -0.2977
     25 C          62.1130   88.6498   11.5436 C.3     1  UNL1        0.1388
     26 C          61.0919   89.6518   11.0927 C.3     1  UNL1        0.2269
     27 O          60.2367   89.3639    9.8945 O.3     1  UNL1       -0.4701
     28 C          60.4026   88.0740    9.1472 C.ar    1  UNL1        0.1790
     29 C          59.5475   87.7860    7.9490 C.ar    1  UNL1        0.1751
     30 F          58.5263   88.7881    7.4980 F       1  UNL1       -0.2009
     31 C          59.7134   86.4961    7.2016 C.ar    1  UNL1        0.0329
     32 C          60.7344   85.4941    7.6525 C.ar    1  UNL1        0.0038
     33 C          61.5896   85.7820    8.8507 C.ar    1  UNL1        0.0178
     34 C          61.4237   87.0719    9.5980 C.ar    1  UNL1        0.0849
@<TRIPOS>BOND
     1    18    19    1
     2    19    20    1
     3    19    21   am
     4    21    22    2
     5    21     1    1
     6     1     2   ar
     7     2     3   ar
     8     3    23    1
     9    23    24    1
    10    24    25    1
    11    25    26    1
    12    26    27    1
    13    27    28    1
    14    28    29   ar
    15    29    30    1
    16    29    31   ar
    17    31    32   ar
    18    32    33   ar
    19    33    34   ar
    20     3     4   ar
    21     4     5   ar
    22     5     6   ar
    23     6    12    1
    24    12    13    1
    25    13    14    1
    26    14    15    1
    27    15    16    1
    28    16    17    1
    29     6     7   ar
    30     7     8   ar
    31     8     9    2
    32     8    10   ar
    33    10    11   ar
    34    11     1   ar
    35    34    24    1
    36    10     4   ar
    37    34    28   ar
    38    17    12    1
@<TRIPOS>MOLECULE
*****
 34 38 0 0 0
SMALL
GASTEIGER

@<TRIPOS>ATOM
      1 C          62.7547   83.6886   12.3724 C.ar    1  UNL1        0.0536
      2 C          62.3294   84.7316   11.3819 C.ar    1  UNL1        0.0049
      3 C          62.5956   86.1816   11.6587 C.ar    1  UNL1        0.0325
      4 C          63.2871   86.5886   12.9261 C.ar    1  UNL1        0.1475
      5 O          63.5532   88.0386   13.2029 O.2     1  UNL1       -0.4400
      6 C          64.2447   88.4455   14.4703 C.ar    1  UNL1        0.2024
      7 C          64.6700   87.4024   15.4609 C.ar    1  UNL1        0.0955
      8 C          64.4039   85.9524   15.1840 C.ar    1  UNL1        0.2030
      9 O          64.8291   84.9094   16.1745 O.2     1  UNL1       -0.2863
     10 C          63.7123   85.5455   13.9166 C.ar    1  UNL1        0.0735
     11 C          63.4462   84.0955   13.6397 C.ar    1  UNL1        0.0107
     12 N          64.5109   89.8955   14.7472 N.pl3   1  UNL1       -0.2742
     13 C          63.9436   90.5408   15.9768 C.3     1  UNL1        0.1257
     14 C          64.2097   91.9907   16.2536 C.3     1  UNL1        0.1637
     15 O          65.0433   92.7955   15.3009 O.3     1  UNL1       -0.3501
     16 C          65.6105   92.1503   14.0713 C.3     1  UNL1        0.1637
     17 C          65.3444   90.7003   13.7945 C.3     1  UNL1        0.1257
     18 C          62.9343   80.0967   10.6942 C.3     1  UNL1        0.1152
     19 N          63.2005   81.5467   10.9710 N.am    1  UNL1       -0.2726
     20 C          64.1786   82.3049   10.1234 C.3     1  UNL1        0.1152
     21 C          62.4885   82.2386   12.0955 C.2     1  UNL1        0.2491
     22 O          61.5104   81.4804   12.9431 O.2     1  UNL1       -0.2699
     23 C          62.1703   87.2247   10.6682 C.3     1  UNL1        0.1209
     24 N          61.2395   86.8613    9.5494 N.pl3   1  UNL1       -0.2977
     25 C          59.8287   87.3709    9.5520 C.3     1  UNL1        0.1388
     26 C          58.8980   87.0075    8.4332 C.3     1  UNL1        0.2269
     27 O          59.3780   86.1345    7.3119 O.3     1  UNL1       -0.4701
     28 C          60.7888   85.6250    7.3092 C.ar    1  UNL1        0.1790
     29 C          61.2689   84.7521    6.1879 C.ar    1  UNL1        0.1751
     30 F          60.3381   84.3886    5.0691 F       1  UNL1       -0.2009
     31 C          62.6797   84.2425    6.1853 C.ar    1  UNL1        0.0329
     32 C          63.6104   84.6059    7.3040 C.ar    1  UNL1        0.0038
     33 C          63.1304   85.4788    8.4254 C.ar    1  UNL1        0.0178
     34 C          61.7196   85.9884    8.4280 C.ar    1  UNL1        0.0849
@<TRIPOS>BOND
     1    18    19    1
     2    19    20    1
     3    19    21   am
     4    21    22    2
     5    21     1    1
     6     1     2   ar
     7     2     3   ar
     8     3    23    1
     9    23    24    1
    10    24    25    1
    11    25    26    1
    12    26    27    1
    13    27    28    1
    14    28    29   ar
    15    29    30    1
    16    29    31   ar
    17    31    32   ar
    18    32    33   ar
    19    33    34   ar
    20     3     4   ar
    21     4     5   ar
    22     5     6   ar
    23     6    12    1
    24    12    13    1
    25    13    14    1
    26    14    15    1
    27    15    16    1
    28    16    17    1
    29     6     7   ar
    30     7     8   ar
    31     8     9    2
    32     8    10   ar
    33    10    11   ar
    34    11     1   ar
    35    34    24    1
    36    10     4   ar
    37    34    28   ar
    38    17    12    1
@<TRIPOS>MOLECULE
*****
 34 38 0 0 0
SMALL
GASTEIGER

@<TRIPOS>ATOM
      1 C          61.1345   86.4949    8.8679 C.ar    1  UNL1        0.0536
      2 C          61.9257   85.6326    9.8062 C.ar    1  UNL1        0.0049
      3 C          62.5615   86.2359   11.0235 C.ar    1  UNL1        0.0325
      4 C          62.4060   87.7014   11.3026 C.ar    1  UNL1        0.1475
      5 O          63.0418   88.3047   12.5199 O.2     1  UNL1       -0.4400
      6 C          62.8864   89.7702   12.7990 C.ar    1  UNL1        0.2024
      7 C          62.0952   90.6326   11.8607 C.ar    1  UNL1        0.0955
      8 C          61.4594   90.0294   10.6434 C.ar    1  UNL1        0.2030
      9 O          60.6682   90.8917    9.7051 O.2     1  UNL1       -0.2863
     10 C          61.6149   88.5637   10.3643 C.ar    1  UNL1        0.0735
     11 C          60.9791   87.9605    9.1470 C.ar    1  UNL1        0.0107
     12 N          63.5222   90.3735   14.0163 N.pl3   1  UNL1       -0.2742
     13 C          62.9758   90.0648   15.3788 C.3     1  UNL1        0.1257
     14 C          63.6116   90.6680   16.5961 C.3     1  UNL1        0.1637
     15 O          64.7937   91.5800   16.4510 O.3     1  UNL1       -0.3501
     16 C          65.3400   91.8886   15.0885 C.3     1  UNL1        0.1637
     17 C          64.7043   91.2853   13.8712 C.3     1  UNL1        0.1257
     18 C          60.6598   84.3829    5.5417 C.3     1  UNL1        0.1152
     19 N          61.2955   84.9861    6.7590 N.am    1  UNL1       -0.2726
     20 C          62.7282   84.6837    7.0848 C.3     1  UNL1        0.1152
     21 C          60.4987   85.8917    7.6506 C.2     1  UNL1        0.2491
     22 O          59.0661   86.1941    7.3248 O.2     1  UNL1       -0.2699
     23 C          63.3527   85.3735   11.9618 C.3     1  UNL1        0.1209
     24 N          63.5102   83.9084   11.6814 N.pl3   1  UNL1       -0.2977
     25 C          64.2846   83.4537   10.4799 C.3     1  UNL1        0.1388
     26 C          64.4421   81.9885   10.1995 C.3     1  UNL1        0.2269
     27 O          63.8252   80.9781   11.1206 O.3     1  UNL1       -0.4701
     28 C          63.0508   81.4328   12.3221 C.ar    1  UNL1        0.1790
     29 C          62.4339   80.4224   13.2432 C.ar    1  UNL1        0.1751
     30 F          62.5914   78.9572   12.9628 F       1  UNL1       -0.2009
     31 C          61.6595   80.8770   14.4447 C.ar    1  UNL1        0.0329
     32 C          61.5020   82.3421   14.7251 C.ar    1  UNL1        0.0038
     33 C          62.1189   83.3525   13.8040 C.ar    1  UNL1        0.0178
     34 C          62.8933   82.8979   12.6025 C.ar    1  UNL1        0.0849
@<TRIPOS>BOND
     1    18    19    1
     2    19    20    1
     3    19    21   am
     4    21    22    2
     5    21     1    1
     6     1     2   ar
     7     2     3   ar
     8     3    23    1
     9    23    24    1
    10    24    25    1
    11    25    26    1
    12    26    27    1
    13    27    28    1
    14    28    29   ar
    15    29    30    1
    16    29    31   ar
    17    31    32   ar
    18    32    33   ar
    19    33    34   ar
    20     3     4   ar
    21     4     5   ar
    22     5     6   ar
    23     6    12    1
    24    12    13    1
    25    13    14    1
    26    14    15    1
    27    15    16    1
    28    16    17    1
    29     6     7   ar
    30     7     8   ar
    31     8     9    2
    32     8    10   ar
    33    10    11   ar
    34    11     1   ar
    35    34    24    1
    36    10     4   ar
    37    34    28   ar
    38    17    12    1
