@<TRIPOS>MOLECULE
*****
 25 27 0 0 0
SMALL
GASTEIGER

@<TRIPOS>ATOM
      1 C          62.3374   90.2683   11.6145 C.2     1  UNL1        0.2461
      2 O          61.7669   89.3366   12.6423 O.2     1  UNL1       -0.2701
      3 N          61.6811   90.3964   10.2718 N.am    1  UNL1       -0.2969
      4 H          62.0556   91.0080    9.5972 H       1  UNL1        0.1501
      5 N          68.2436   93.5376   15.6210 N.pl3   1  UNL1       -0.3375
      6 C          67.2295   93.0495   14.6293 C.ar    1  UNL1        0.1567
      7 N          67.1975   93.3790   13.1663 N.ar    1  UNL1       -0.2245
      8 C          66.0177   92.6793   12.5592 C.ar    1  UNL1        0.0892
      9 C          65.4881   92.6376   11.1565 C.ar    1  UNL1        0.0198
     10 C          64.2614   91.8339   10.8416 C.ar    1  UNL1        0.0061
     11 C          63.5642   91.0720   11.9294 C.ar    1  UNL1        0.0540
     12 C          64.0938   91.1138   13.3322 C.ar    1  UNL1        0.0126
     13 C          65.3205   91.9174   13.6471 C.ar    1  UNL1        0.0498
     14 S          66.0695   92.1462   14.9264 S.2     1  UNL1       -0.0520
     15 H          68.9726   94.1309   15.3281 H       1  UNL1        0.1442
     16 H          68.1801   93.2647   16.5648 H       1  UNL1        0.1442
     17 C          60.4543   89.5927    9.9568 C.3     1  UNL1        0.1166
     18 C          60.5701   88.3307    9.1546 C.ar    1  UNL1       -0.0017
     19 C          59.4888   87.9568    8.1844 C.ar    1  UNL1       -0.0017
     20 C          59.6046   86.6947    7.3821 C.ar    1  UNL1        0.0120
     21 C          60.8016   85.8064    7.5500 C.ar    1  UNL1        0.0682
     22 CL         60.9173   84.5443    6.7477 Cl      1  UNL1       -0.0814
     23 C          61.8828   86.1802    8.5202 C.ar    1  UNL1        0.0679
     24 CL         63.0797   85.2919    8.6880 Cl      1  UNL1       -0.0814
     25 C          61.7670   87.4424    9.3224 C.ar    1  UNL1        0.0096
@<TRIPOS>BOND
     1     5     6    1
     2     6     7   ar
     3     7     8   ar
     4     8     9   ar
     5     9    10   ar
     6    10    11   ar
     7    11     1    1
     8     1     2    2
     9     1     3   am
    10     3    17    1
    11    17    18    1
    12    18    19   ar
    13    19    20   ar
    14    20    21   ar
    15    21    22    1
    16    21    23   ar
    17    23    24    1
    18    23    25   ar
    19    11    12   ar
    20    12    13   ar
    21    13    14   ar
    22    14     6   ar
    23    13     8   ar
    24    25    18   ar
    25     5    15    1
    26     5    16    1
    27     3     4    1
@<TRIPOS>MOLECULE
*****
 25 27 0 0 0
SMALL
GASTEIGER

@<TRIPOS>ATOM
      1 C          62.8205   89.3104   12.0879 C.2     1  UNL1        0.2461
      2 O          63.1324   87.9696   12.6837 O.2     1  UNL1       -0.2701
      3 N          61.5572   89.5071   11.3036 N.am    1  UNL1       -0.2969
      4 H          61.3525   90.3871   10.9126 H       1  UNL1        0.1501
      5 N          67.1530   95.6848   10.5979 N.pl3   1  UNL1       -0.3375
      6 C          66.4395   94.4847   11.1463 C.ar    1  UNL1        0.1567
      7 N          66.5599   93.9489   12.5421 N.ar    1  UNL1       -0.2245
      8 C          65.6751   92.7428   12.6536 C.ar    1  UNL1        0.0892
      9 C          65.3909   91.8083   13.7920 C.ar    1  UNL1        0.0198
     10 C          64.4394   90.6642   13.6034 C.ar    1  UNL1        0.0061
     11 C          63.7721   90.4546   12.2765 C.ar    1  UNL1        0.0540
     12 C          64.0564   91.3891   11.1381 C.ar    1  UNL1        0.0126
     13 C          65.0079   92.5331   11.3267 C.ar    1  UNL1        0.0498
     14 S          65.4803   93.6097   10.3951 S.2     1  UNL1       -0.0520
     15 H          67.7664   96.1978   11.1722 H       1  UNL1        0.1442
     16 H          67.0078   95.9595    9.6637 H       1  UNL1        0.1442
     17 C          60.6056   88.3629   11.1150 C.3     1  UNL1        0.1166
     18 C          60.7586   87.4464    9.9375 C.ar    1  UNL1       -0.0017
     19 C          59.6557   87.3327    8.9273 C.ar    1  UNL1       -0.0017
     20 C          59.8087   86.4162    7.7498 C.ar    1  UNL1        0.0120
     21 C          61.0648   85.6134    7.5824 C.ar    1  UNL1        0.0682
     22 CL         61.2178   84.6969    6.4049 Cl      1  UNL1       -0.0814
     23 C          62.1677   85.7271    8.5927 C.ar    1  UNL1        0.0679
     24 CL         63.4237   84.9244    8.4254 Cl      1  UNL1       -0.0814
     25 C          62.0146   86.6437    9.7702 C.ar    1  UNL1        0.0096
@<TRIPOS>BOND
     1     5     6    1
     2     6     7   ar
     3     7     8   ar
     4     8     9   ar
     5     9    10   ar
     6    10    11   ar
     7    11     1    1
     8     1     2    2
     9     1     3   am
    10     3    17    1
    11    17    18    1
    12    18    19   ar
    13    19    20   ar
    14    20    21   ar
    15    21    22    1
    16    21    23   ar
    17    23    24    1
    18    23    25   ar
    19    11    12   ar
    20    12    13   ar
    21    13    14   ar
    22    14     6   ar
    23    13     8   ar
    24    25    18   ar
    25     5    15    1
    26     5    16    1
    27     3     4    1
@<TRIPOS>MOLECULE
*****
 25 27 0 0 0
SMALL
GASTEIGER

@<TRIPOS>ATOM
      1 C          63.8767   87.8037   14.7900 C.2     1  UNL1        0.2461
      2 O          63.4689   87.9066   16.2298 O.2     1  UNL1       -0.2701
      3 N          64.0809   86.4566   14.1627 N.am    1  UNL1       -0.2969
      4 H          64.3486   86.3892   13.2177 H       1  UNL1        0.1501
      5 N          66.6308   94.7713   12.4468 N.pl3   1  UNL1       -0.3375
      6 C          65.9415   93.4559   12.6577 C.ar    1  UNL1        0.1567
      7 N          64.8999   92.8527   11.7625 N.ar    1  UNL1       -0.2245
      8 C          64.4875   91.5367   12.3524 C.ar    1  UNL1        0.0892
      9 C          63.4972   90.5026   11.9052 C.ar    1  UNL1        0.0198
     10 C          63.2937   89.2583   12.7177 C.ar    1  UNL1        0.0061
     11 C          64.0803   89.0481   13.9775 C.ar    1  UNL1        0.0540
     12 C          65.0706   90.0822   14.4247 C.ar    1  UNL1        0.0126
     13 C          65.2741   91.3265   13.6121 C.ar    1  UNL1        0.0498
     14 S          66.1728   92.5126   13.8008 S.2     1  UNL1       -0.0520
     15 H          66.4098   95.3225   11.6615 H       1  UNL1        0.1442
     16 H          67.3041   95.0835   13.0936 H       1  UNL1        0.1442
     17 C          63.8773   85.2123   14.9753 C.3     1  UNL1        0.1166
     18 C          63.5879   83.9090   14.2914 C.ar    1  UNL1       -0.0017
     19 C          64.5451   83.3688   13.2707 C.ar    1  UNL1       -0.0017
     20 C          64.2556   82.0655   12.5868 C.ar    1  UNL1        0.0120
     21 C          63.0089   81.3024   12.9238 C.ar    1  UNL1        0.0682
     22 CL         62.7195   79.9991   12.2399 Cl      1  UNL1       -0.0814
     23 C          62.0517   81.8426   13.9445 C.ar    1  UNL1        0.0679
     24 CL         60.8051   81.0795   14.2815 Cl      1  UNL1       -0.0814
     25 C          62.3412   83.1459   14.6284 C.ar    1  UNL1        0.0096
@<TRIPOS>BOND
     1     5     6    1
     2     6     7   ar
     3     7     8   ar
     4     8     9   ar
     5     9    10   ar
     6    10    11   ar
     7    11     1    1
     8     1     2    2
     9     1     3   am
    10     3    17    1
    11    17    18    1
    12    18    19   ar
    13    19    20   ar
    14    20    21   ar
    15    21    22    1
    16    21    23   ar
    17    23    24    1
    18    23    25   ar
    19    11    12   ar
    20    12    13   ar
    21    13    14   ar
    22    14     6   ar
    23    13     8   ar
    24    25    18   ar
    25     5    15    1
    26     5    16    1
    27     3     4    1
@<TRIPOS>MOLECULE
*****
 25 27 0 0 0
SMALL
GASTEIGER

@<TRIPOS>ATOM
      1 C          64.0016   89.2080   14.8174 C.2     1  UNL1        0.2461
      2 O          62.6957   89.4224   15.5236 O.2     1  UNL1       -0.2701
      3 N          64.6059   87.8364   14.7582 N.am    1  UNL1       -0.2969
      4 H          65.4630   87.6957   14.2947 H       1  UNL1        0.1501
      5 N          66.0182   94.6549    9.5365 N.pl3   1  UNL1       -0.3375
      6 C          65.8380   93.7349   10.7075 C.ar    1  UNL1        0.1567
      7 N          66.6150   93.7775   11.9899 N.ar    1  UNL1       -0.2245
      8 C          66.1064   92.6798   12.8767 C.ar    1  UNL1        0.0892
      9 C          66.4961   92.2436   14.2579 C.ar    1  UNL1        0.0198
     10 C          65.7944   91.0864   14.9048 C.ar    1  UNL1        0.0061
     11 C          64.7032   90.3653   14.1705 C.ar    1  UNL1        0.0540
     12 C          64.3136   90.8015   12.7892 C.ar    1  UNL1        0.0126
     13 C          65.0152   91.9587   12.1423 C.ar    1  UNL1        0.0498
     14 S          64.8494   92.6108   10.8017 S.2     1  UNL1       -0.0520
     15 H          66.6975   95.3667    9.5697 H       1  UNL1        0.1442
     16 H          65.4570   94.5470    8.7349 H       1  UNL1        0.1442
     17 C          63.9042   86.6791   15.4052 C.3     1  UNL1        0.1166
     18 C          63.5627   85.4624   14.5972 C.ar    1  UNL1       -0.0017
     19 C          63.3713   84.1395   15.2779 C.ar    1  UNL1       -0.0017
     20 C          63.0298   82.9228   14.4700 C.ar    1  UNL1        0.0120
     21 C          62.8797   83.0288   12.9812 C.ar    1  UNL1        0.0682
     22 CL         62.5382   81.8121   12.1733 Cl      1  UNL1       -0.0814
     23 C          63.0711   84.3517   12.3005 C.ar    1  UNL1        0.0679
     24 CL         62.9210   84.4578   10.8119 Cl      1  UNL1       -0.0814
     25 C          63.4126   85.5685   13.1086 C.ar    1  UNL1        0.0096
@<TRIPOS>BOND
     1     5     6    1
     2     6     7   ar
     3     7     8   ar
     4     8     9   ar
     5     9    10   ar
     6    10    11   ar
     7    11     1    1
     8     1     2    2
     9     1     3   am
    10     3    17    1
    11    17    18    1
    12    18    19   ar
    13    19    20   ar
    14    20    21   ar
    15    21    22    1
    16    21    23   ar
    17    23    24    1
    18    23    25   ar
    19    11    12   ar
    20    12    13   ar
    21    13    14   ar
    22    14     6   ar
    23    13     8   ar
    24    25    18   ar
    25     5    15    1
    26     5    16    1
    27     3     4    1
@<TRIPOS>MOLECULE
*****
 25 27 0 0 0
SMALL
GASTEIGER

@<TRIPOS>ATOM
      1 C          62.5677   89.7796   11.6715 C.2     1  UNL1        0.2461
      2 O          61.2736   90.2850   11.1060 O.2     1  UNL1       -0.2701
      3 N          62.7592   88.3112   11.9104 N.am    1  UNL1       -0.2969
      4 H          63.6086   87.9796   12.2816 H       1  UNL1        0.1501
      5 N          68.0799   93.6692   15.6853 N.pl3   1  UNL1       -0.3375
      6 C          67.1087   93.0925   14.6983 C.ar    1  UNL1        0.1567
      7 N          66.9610   93.5039   13.2634 N.ar    1  UNL1       -0.2245
      8 C          65.8757   92.6689   12.6511 C.ar    1  UNL1        0.0892
      9 C          65.2962   92.6332   11.2681 C.ar    1  UNL1        0.0198
     10 C          64.1935   91.6702   10.9416 C.ar    1  UNL1        0.0061
     11 C          63.6704   90.7427   11.9981 C.ar    1  UNL1        0.0540
     12 C          64.2500   90.7784   13.3811 C.ar    1  UNL1        0.0126
     13 C          65.3526   91.7415   13.7076 C.ar    1  UNL1        0.0498
     14 S          66.1146   92.0033   14.9728 S.2     1  UNL1       -0.0520
     15 H          68.6960   94.3856   15.4087 H       1  UNL1        0.1442
     16 H          68.1013   93.3313   16.6097 H       1  UNL1        0.1442
     17 C          61.6566   87.3481   11.5839 C.3     1  UNL1        0.1166
     18 C          61.6138   86.6849   10.2392 C.ar    1  UNL1       -0.0017
     19 C          62.7575   85.8243    9.7907 C.ar    1  UNL1       -0.0017
     20 C          62.7148   85.1610    8.4460 C.ar    1  UNL1        0.0120
     21 C          61.5283   85.3584    7.5497 C.ar    1  UNL1        0.0682
     22 CL         61.4855   84.6952    6.2050 Cl      1  UNL1       -0.0814
     23 C          60.3845   86.2191    7.9982 C.ar    1  UNL1        0.0679
     24 CL         59.1980   86.4165    7.1020 Cl      1  UNL1       -0.0814
     25 C          60.4273   86.8823    9.3430 C.ar    1  UNL1        0.0096
@<TRIPOS>BOND
     1     5     6    1
     2     6     7   ar
     3     7     8   ar
     4     8     9   ar
     5     9    10   ar
     6    10    11   ar
     7    11     1    1
     8     1     2    2
     9     1     3   am
    10     3    17    1
    11    17    18    1
    12    18    19   ar
    13    19    20   ar
    14    20    21   ar
    15    21    22    1
    16    21    23   ar
    17    23    24    1
    18    23    25   ar
    19    11    12   ar
    20    12    13   ar
    21    13    14   ar
    22    14     6   ar
    23    13     8   ar
    24    25    18   ar
    25     5    15    1
    26     5    16    1
    27     3     4    1
@<TRIPOS>MOLECULE
*****
 25 27 0 0 0
SMALL
GASTEIGER

@<TRIPOS>ATOM
      1 C          62.9875   89.7734   11.7420 C.2     1  UNL1        0.2461
      2 O          62.1510   89.1332   12.8098 O.2     1  UNL1       -0.2701
      3 N          62.8515   89.3295   10.3157 N.am    1  UNL1       -0.2969
      4 H          63.4006   89.7497    9.6149 H       1  UNL1        0.1501
      5 N          68.0932   94.1097   15.8349 N.pl3   1  UNL1       -0.3375
      6 C          67.1650   93.4730   14.8434 C.ar    1  UNL1        0.1567
      7 N          66.8925   93.9608   13.4514 N.ar    1  UNL1       -0.2245
      8 C          65.9054   93.0260   12.8175 C.ar    1  UNL1        0.0892
      9 C          65.2704   93.0074   11.4587 C.ar    1  UNL1        0.0198
     10 C          64.2978   91.9232   11.1003 C.ar    1  UNL1        0.0061
     11 C          63.9602   90.8576   12.1006 C.ar    1  UNL1        0.0540
     12 C          64.5952   90.8762   13.4593 C.ar    1  UNL1        0.0126
     13 C          65.5678   91.9604   13.8178 C.ar    1  UNL1        0.0498
     14 S          66.3463   92.2367   15.0699 S.2     1  UNL1       -0.0520
     15 H          68.5897   94.9243   15.5917 H       1  UNL1        0.1442
     16 H          68.2059   93.7130   16.7289 H       1  UNL1        0.1442
     17 C          61.8788   88.2453    9.9572 C.3     1  UNL1        0.1166
     18 C          62.3029   86.8077   10.0159 C.ar    1  UNL1       -0.0017
     19 C          62.7673   86.1113    8.7712 C.ar    1  UNL1       -0.0017
     20 C          63.1915   84.6737    8.8300 C.ar    1  UNL1        0.0120
     21 C          63.1512   83.9325   10.1335 C.ar    1  UNL1        0.0682
     22 CL         63.5753   82.4950   10.1923 Cl      1  UNL1       -0.0814
     23 C          62.6868   84.6290   11.3782 C.ar    1  UNL1        0.0679
     24 CL         62.6466   83.8879   12.6817 Cl      1  UNL1       -0.0814
     25 C          62.2627   86.0666   11.3194 C.ar    1  UNL1        0.0096
@<TRIPOS>BOND
     1     5     6    1
     2     6     7   ar
     3     7     8   ar
     4     8     9   ar
     5     9    10   ar
     6    10    11   ar
     7    11     1    1
     8     1     2    2
     9     1     3   am
    10     3    17    1
    11    17    18    1
    12    18    19   ar
    13    19    20   ar
    14    20    21   ar
    15    21    22    1
    16    21    23   ar
    17    23    24    1
    18    23    25   ar
    19    11    12   ar
    20    12    13   ar
    21    13    14   ar
    22    14     6   ar
    23    13     8   ar
    24    25    18   ar
    25     5    15    1
    26     5    16    1
    27     3     4    1
@<TRIPOS>MOLECULE
*****
 25 27 0 0 0
SMALL
GASTEIGER

@<TRIPOS>ATOM
      1 C          62.5765   89.0512   12.0711 C.2     1  UNL1        0.2461
      2 O          61.1068   89.3168   11.9321 O.2     1  UNL1       -0.2701
      3 N          63.0988   87.6492   11.9632 N.am    1  UNL1       -0.2969
      4 H          64.0634   87.4749   12.0544 H       1  UNL1        0.1501
      5 N          67.5901   93.8815   15.6982 N.pl3   1  UNL1       -0.3375
      6 C          66.6741   93.1304   14.7779 C.ar    1  UNL1        0.1567
      7 N          66.3853   93.4750   13.3469 N.ar    1  UNL1       -0.2245
      8 C          65.4189   92.4604   12.8117 C.ar    1  UNL1        0.0892
      9 C          64.7799   92.2958   11.4646 C.ar    1  UNL1        0.0198
     10 C          63.8325   91.1594   11.2178 C.ar    1  UNL1        0.0061
     11 C          63.5240   90.1876   12.3180 C.ar    1  UNL1        0.0540
     12 C          64.1630   90.3522   13.6650 C.ar    1  UNL1        0.0126
     13 C          65.1104   91.4886   13.9119 C.ar    1  UNL1        0.0498
     14 S          65.8862   91.9027   15.1271 S.2     1  UNL1       -0.0520
     15 H          68.0660   94.6803   15.3748 H       1  UNL1        0.1442
     16 H          67.7153   93.5756   16.6256 H       1  UNL1        0.1442
     17 C          62.1513   86.5128   11.7163 C.3     1  UNL1        0.1166
     18 C          62.5274   85.1201   12.1270 C.ar    1  UNL1       -0.0017
     19 C          62.5736   84.7535   13.5808 C.ar    1  UNL1       -0.0017
     20 C          62.9497   83.3607   13.9915 C.ar    1  UNL1        0.0120
     21 C          63.2795   82.3344   12.9484 C.ar    1  UNL1        0.0682
     22 CL         63.6556   80.9417   13.3591 Cl      1  UNL1       -0.0814
     23 C          63.2333   82.7010   11.4946 C.ar    1  UNL1        0.0679
     24 CL         63.5631   81.6748   10.4515 Cl      1  UNL1       -0.0814
     25 C          62.8572   84.0938   11.0839 C.ar    1  UNL1        0.0096
@<TRIPOS>BOND
     1     5     6    1
     2     6     7   ar
     3     7     8   ar
     4     8     9   ar
     5     9    10   ar
     6    10    11   ar
     7    11     1    1
     8     1     2    2
     9     1     3   am
    10     3    17    1
    11    17    18    1
    12    18    19   ar
    13    19    20   ar
    14    20    21   ar
    15    21    22    1
    16    21    23   ar
    17    23    24    1
    18    23    25   ar
    19    11    12   ar
    20    12    13   ar
    21    13    14   ar
    22    14     6   ar
    23    13     8   ar
    24    25    18   ar
    25     5    15    1
    26     5    16    1
    27     3     4    1
@<TRIPOS>MOLECULE
*****
 25 27 0 0 0
SMALL
GASTEIGER

@<TRIPOS>ATOM
      1 C          62.3165   87.0781   10.7340 C.2     1  UNL1        0.2461
      2 O          61.9392   87.5580    9.3638 O.2     1  UNL1       -0.2701
      3 N          62.3967   88.0502   11.8734 N.am    1  UNL1       -0.2969
      4 H          62.6443   87.7352   12.7727 H       1  UNL1        0.1501
      5 N          63.0917   80.1384   14.3204 N.pl3   1  UNL1       -0.3375
      6 C          63.0384   81.3236   13.4026 C.ar    1  UNL1        0.1567
      7 N          63.4130   81.3315   11.9501 N.ar    1  UNL1       -0.2245
      8 C          63.2073   82.7217   11.4259 C.ar    1  UNL1        0.0892
      9 C          63.4120   83.3224   10.0668 C.ar    1  UNL1        0.0198
     10 C          63.1151   84.7745    9.8362 C.ar    1  UNL1        0.0061
     11 C          62.6134   85.6259   10.9646 C.ar    1  UNL1        0.0540
     12 C          62.4087   85.0252   12.3237 C.ar    1  UNL1        0.0126
     13 C          62.7056   83.5731   12.5544 C.ar    1  UNL1        0.0498
     14 S          62.6013   82.7090   13.7760 S.2     1  UNL1       -0.0520
     15 H          63.3943   79.2655   13.9802 H       1  UNL1        0.1442
     16 H          62.8240   80.2334   15.2631 H       1  UNL1        0.1442
     17 C          62.0998   89.5024   11.6427 C.3     1  UNL1        0.1166
     18 C          63.1947   90.5204   11.7645 C.ar    1  UNL1       -0.0017
     19 C          63.5712   91.3621   10.5814 C.ar    1  UNL1       -0.0017
     20 C          64.6661   92.3801   10.7032 C.ar    1  UNL1        0.0120
     21 C          65.3846   92.5563   12.0082 C.ar    1  UNL1        0.0682
     22 CL         66.4794   93.5743   12.1300 Cl      1  UNL1       -0.0814
     23 C          65.0081   91.7146   13.1913 C.ar    1  UNL1        0.0679
     24 CL         65.7264   91.8908   14.4962 Cl      1  UNL1       -0.0814
     25 C          63.9131   90.6966   13.0694 C.ar    1  UNL1        0.0096
@<TRIPOS>BOND
     1     5     6    1
     2     6     7   ar
     3     7     8   ar
     4     8     9   ar
     5     9    10   ar
     6    10    11   ar
     7    11     1    1
     8     1     2    2
     9     1     3   am
    10     3    17    1
    11    17    18    1
    12    18    19   ar
    13    19    20   ar
    14    20    21   ar
    15    21    22    1
    16    21    23   ar
    17    23    24    1
    18    23    25   ar
    19    11    12   ar
    20    12    13   ar
    21    13    14   ar
    22    14     6   ar
    23    13     8   ar
    24    25    18   ar
    25     5    15    1
    26     5    16    1
    27     3     4    1
@<TRIPOS>MOLECULE
*****
 25 27 0 0 0
SMALL
GASTEIGER

@<TRIPOS>ATOM
      1 C          62.9154   89.8353   11.6748 C.2     1  UNL1        0.2461
      2 O          62.1680   89.2742   12.8481 O.2     1  UNL1       -0.2701
      3 N          62.7083   89.2560   10.3069 N.am    1  UNL1       -0.2969
      4 H          63.1988   89.6243    9.5368 H       1  UNL1        0.1501
      5 N          67.3198   96.1637   10.1994 N.pl3   1  UNL1       -0.3375
      6 C          66.5870   94.9750   10.7471 C.ar    1  UNL1        0.1567
      7 N          66.6739   94.4561   12.1518 N.ar    1  UNL1       -0.2245
      8 C          65.7792   93.2569   12.2592 C.ar    1  UNL1        0.0892
      9 C          65.4645   92.3387   13.4028 C.ar    1  UNL1        0.0198
     10 C          64.5099   91.1982   13.2079 C.ar    1  UNL1        0.0061
     11 C          63.8701   90.9759   11.8696 C.ar    1  UNL1        0.0540
     12 C          64.1847   91.8942   10.7261 C.ar    1  UNL1        0.0126
     13 C          65.1393   93.0347   10.9209 C.ar    1  UNL1        0.0498
     14 S          65.6386   94.0965    9.9864 S.2     1  UNL1       -0.0520
     15 H          67.9240   96.6801   10.7803 H       1  UNL1        0.1442
     16 H          67.1966   96.4274    9.2589 H       1  UNL1        0.1442
     17 C          61.7537   88.1154   10.1121 C.3     1  UNL1        0.1166
     18 C          62.2565   86.7026   10.1446 C.ar    1  UNL1       -0.0017
     19 C          62.7531   86.0541    8.8865 C.ar    1  UNL1       -0.0017
     20 C          63.2560   84.6413    8.9190 C.ar    1  UNL1        0.0120
     21 C          63.2623   83.8769   10.2097 C.ar    1  UNL1        0.0682
     22 CL         63.7651   82.4641   10.2422 Cl      1  UNL1       -0.0814
     23 C          62.7657   84.5254   11.4678 C.ar    1  UNL1        0.0679
     24 CL         62.7719   83.7611   12.7585 Cl      1  UNL1       -0.0814
     25 C          62.2628   85.9383   11.4352 C.ar    1  UNL1        0.0096
@<TRIPOS>BOND
     1     5     6    1
     2     6     7   ar
     3     7     8   ar
     4     8     9   ar
     5     9    10   ar
     6    10    11   ar
     7    11     1    1
     8     1     2    2
     9     1     3   am
    10     3    17    1
    11    17    18    1
    12    18    19   ar
    13    19    20   ar
    14    20    21   ar
    15    21    22    1
    16    21    23   ar
    17    23    24    1
    18    23    25   ar
    19    11    12   ar
    20    12    13   ar
    21    13    14   ar
    22    14     6   ar
    23    13     8   ar
    24    25    18   ar
    25     5    15    1
    26     5    16    1
    27     3     4    1
