@<TRIPOS>MOLECULE
*****
 29 31 0 0 0
SMALL
GASTEIGER

@<TRIPOS>ATOM
      1 C          63.4301   90.4353   12.7737 C.ar    1  UNL1        0.1743
      2 N          64.2465   91.2237   11.7931 N.ar    1  UNL1       -0.2173
      3 C          65.2085   92.2647   12.2838 C.ar    1  UNL1        0.1834
      4 N          65.3542   92.5171   13.7553 N.ar    1  UNL1       -0.1885
      5 C          64.5377   91.7286   14.7359 C.ar    1  UNL1        0.2596
      6 O          64.6833   91.9811   16.2073 O.3     1  UNL1       -0.4898
      7 C          63.5757   90.6877   14.2451 C.ar    1  UNL1        0.2098
      8 O          62.7592   89.8992   15.2258 O.3     1  UNL1       -0.5007
      9 H          65.2843   92.6313   16.5139 H       1  UNL1        0.2938
     10 H          62.8501   90.0569   16.1449 H       1  UNL1        0.2924
     11 C          66.0250   93.0532   11.3032 C.ar    1  UNL1        0.1179
     12 C          67.0205   92.3559   10.4241 C.ar    1  UNL1        0.0337
     13 C          67.8369   93.1443    9.4434 C.ar    1  UNL1        0.0608
     14 CL         68.8323   92.4470    8.5643 Cl      1  UNL1       -0.0821
     15 C          67.6580   94.6302    9.3419 C.ar    1  UNL1        0.0321
     16 C          66.6626   95.3275   10.2210 C.ar    1  UNL1        0.0998
     17 N          65.8461   94.5390   11.2017 N.ar    1  UNL1       -0.2407
     18 N          62.9485   88.2923   11.3860 N.am    1  UNL1       -0.3012
     19 C          62.4679   89.3943   12.2829 C.2     1  UNL1        0.2668
     20 O          61.0253   89.4554   12.6892 O.2     1  UNL1       -0.2684
     21 H          63.8953   88.2522   11.1193 H       1  UNL1        0.1497
     22 C          61.9275   85.9098   11.5637 C.3     1  UNL1        0.0213
     23 C          61.9864   87.2513   10.8952 C.3     1  UNL1        0.0719
     24 C          61.0832   87.5519    9.7359 C.3     1  UNL1        0.0180
     25 C          60.8198   88.9743    9.3395 C.3     1  UNL1        0.0016
     26 C          59.9167   89.2749    8.1802 C.3     1  UNL1        0.0001
     27 C          59.2768   88.1530    7.4174 C.3     1  UNL1        0.0000
     28 C          59.5401   86.7305    7.8138 C.3     1  UNL1        0.0001
     29 C          60.4433   86.4299    8.9731 C.3     1  UNL1        0.0016
@<TRIPOS>BOND
     1    23    22    1
     2    23    18    1
     3    18    19   am
     4    19    20    2
     5    19     1    1
     6     1     2   ar
     7     2     3   ar
     8     3    11    1
     9    11    12   ar
    10    12    13   ar
    11    13    14    1
    12    13    15   ar
    13    15    16   ar
    14    16    17   ar
    15     3     4   ar
    16     4     5   ar
    17     5     6    1
    18     5     7   ar
    19     7     8    1
    20    23    24    1
    21    24    25    1
    22    25    26    1
    23    26    27    1
    24    27    28    1
    25    28    29    1
    26     7     1   ar
    27    29    24    1
    28    17    11   ar
    29    18    21    1
    30     6     9    1
    31     8    10    1
@<TRIPOS>MOLECULE
*****
 29 31 0 0 0
SMALL
GASTEIGER

@<TRIPOS>ATOM
      1 C          63.9369   91.1112   13.3693 C.ar    1  UNL1        0.1743
      2 N          64.6699   91.7595   12.2325 N.ar    1  UNL1       -0.2173
      3 C          65.7724   92.7375   12.5116 C.ar    1  UNL1        0.1834
      4 N          66.1420   93.0671   13.9275 N.ar    1  UNL1       -0.1885
      5 C          65.4090   92.4188   15.0643 C.ar    1  UNL1        0.2596
      6 O          65.7786   92.7484   16.4802 O.3     1  UNL1       -0.4898
      7 C          64.3064   91.4408   14.7852 C.ar    1  UNL1        0.2098
      8 O          63.5734   90.7925   15.9220 O.3     1  UNL1       -0.5007
      9 H          66.4674   93.3593   16.6545 H       1  UNL1        0.2938
     10 H          63.8042   90.9984   16.8065 H       1  UNL1        0.2924
     11 C          66.5055   93.3858   11.3748 C.ar    1  UNL1        0.1179
     12 C          67.3462   92.5535   10.4526 C.ar    1  UNL1        0.0337
     13 C          68.0792   93.2018    9.3158 C.ar    1  UNL1        0.0608
     14 CL         68.9199   92.3694    8.3936 Cl      1  UNL1       -0.0821
     15 C          67.9716   94.6825    9.1012 C.ar    1  UNL1        0.0321
     16 C          67.1310   95.5148   10.0234 C.ar    1  UNL1        0.0998
     17 N          66.3979   94.8665   11.1602 N.ar    1  UNL1       -0.2407
     18 N          61.8706   90.3891   11.9695 N.am    1  UNL1       -0.3012
     19 C          62.8342   90.1332   13.0902 C.2     1  UNL1        0.2668
     20 O          62.6952   88.8995   13.9319 O.2     1  UNL1       -0.2684
     21 H          61.9619   91.1989   11.4171 H       1  UNL1        0.1497
     22 C          59.4575   89.5330   12.4099 C.3     1  UNL1        0.0213
     23 C          60.7680   89.4111   11.6905 C.3     1  UNL1        0.0719
     24 C          60.9759   88.3112   10.6919 C.3     1  UNL1        0.0180
     25 C          62.0333   87.2739   10.9281 C.3     1  UNL1        0.0016
     26 C          62.2413   86.1740    9.9296 C.3     1  UNL1        0.0001
     27 C          61.3918   86.1115    8.6949 C.3     1  UNL1        0.0000
     28 C          60.3344   87.1489    8.4586 C.3     1  UNL1        0.0001
     29 C          60.1265   88.2488    9.4572 C.3     1  UNL1        0.0016
@<TRIPOS>BOND
     1    23    22    1
     2    23    18    1
     3    18    19   am
     4    19    20    2
     5    19     1    1
     6     1     2   ar
     7     2     3   ar
     8     3    11    1
     9    11    12   ar
    10    12    13   ar
    11    13    14    1
    12    13    15   ar
    13    15    16   ar
    14    16    17   ar
    15     3     4   ar
    16     4     5   ar
    17     5     6    1
    18     5     7   ar
    19     7     8    1
    20    23    24    1
    21    24    25    1
    22    25    26    1
    23    26    27    1
    24    27    28    1
    25    28    29    1
    26     7     1   ar
    27    29    24    1
    28    17    11   ar
    29    18    21    1
    30     6     9    1
    31     8    10    1
@<TRIPOS>MOLECULE
*****
 29 31 0 0 0
SMALL
GASTEIGER

@<TRIPOS>ATOM
      1 C          63.9868   91.1916   13.2006 C.ar    1  UNL1        0.1743
      2 N          64.6994   91.8393   12.0505 N.ar    1  UNL1       -0.2173
      3 C          65.8399   92.7789   12.3081 C.ar    1  UNL1        0.1834
      4 N          66.2678   93.0709   13.7158 N.ar    1  UNL1       -0.1885
      5 C          65.5552   92.4232   14.8659 C.ar    1  UNL1        0.2596
      6 O          65.9831   92.7152   16.2736 O.3     1  UNL1       -0.4898
      7 C          64.4147   91.4836   14.6083 C.ar    1  UNL1        0.2098
      8 O          63.7021   90.8359   15.7584 O.3     1  UNL1       -0.5007
      9 H          66.6955   93.3021   16.4346 H       1  UNL1        0.2938
     10 H          63.9694   91.0182   16.6378 H       1  UNL1        0.2924
     11 C          66.5525   93.4266   11.1580 C.ar    1  UNL1        0.1179
     12 C          66.1834   94.8174   10.7344 C.ar    1  UNL1        0.0337
     13 C          66.8960   95.4652    9.5844 C.ar    1  UNL1        0.0608
     14 CL         66.5269   96.8560    9.1608 Cl      1  UNL1       -0.0821
     15 C          67.9777   94.7221    8.8578 C.ar    1  UNL1        0.0321
     16 C          68.3468   93.3312    9.2814 C.ar    1  UNL1        0.0998
     17 N          67.6341   92.6835   10.4315 N.ar    1  UNL1       -0.2407
     18 N          61.9627   90.4547   11.7480 N.am    1  UNL1       -0.3012
     19 C          62.8463   90.2519   12.9430 C.2     1  UNL1        0.2668
     20 O          62.5895   89.1095   13.8804 O.2     1  UNL1       -0.2684
     21 H          62.1313   91.2045   11.1327 H       1  UNL1        0.1497
     22 C          59.5029   89.7328   12.1699 C.3     1  UNL1        0.0213
     23 C          60.8222   89.5150   11.4904 C.3     1  UNL1        0.0719
     24 C          61.0011   88.3576   10.5532 C.3     1  UNL1        0.0180
     25 C          62.0610   87.3311   10.8229 C.3     1  UNL1        0.0016
     26 C          62.2399   86.1736    9.8857 C.3     1  UNL1        0.0001
     27 C          61.3589   86.0427    8.6788 C.3     1  UNL1        0.0000
     28 C          60.2989   87.0692    8.4090 C.3     1  UNL1        0.0001
     29 C          60.1200   88.2267    9.3462 C.3     1  UNL1        0.0016
@<TRIPOS>BOND
     1    23    22    1
     2    23    18    1
     3    18    19   am
     4    19    20    2
     5    19     1    1
     6     1     2   ar
     7     2     3   ar
     8     3    11    1
     9    11    12   ar
    10    12    13   ar
    11    13    14    1
    12    13    15   ar
    13    15    16   ar
    14    16    17   ar
    15     3     4   ar
    16     4     5   ar
    17     5     6    1
    18     5     7   ar
    19     7     8    1
    20    23    24    1
    21    24    25    1
    22    25    26    1
    23    26    27    1
    24    27    28    1
    25    28    29    1
    26     7     1   ar
    27    29    24    1
    28    17    11   ar
    29    18    21    1
    30     6     9    1
    31     8    10    1
@<TRIPOS>MOLECULE
*****
 29 31 0 0 0
SMALL
GASTEIGER

@<TRIPOS>ATOM
      1 C          61.9820   87.5531   10.9246 C.ar    1  UNL1        0.1743
      2 N          62.8040   88.2141   11.9910 N.ar    1  UNL1       -0.2173
      3 C          62.6104   89.6707   12.2922 C.ar    1  UNL1        0.1834
      4 N          61.5948   90.4663   11.5270 N.ar    1  UNL1       -0.1885
      5 C          60.7728   89.8053   10.4605 C.ar    1  UNL1        0.2596
      6 O          59.7572   90.6009    9.6953 O.3     1  UNL1       -0.4898
      7 C          60.9664   88.3487   10.1593 C.ar    1  UNL1        0.2098
      8 O          60.1444   87.6876    9.0928 O.3     1  UNL1       -0.5007
      9 H          59.6362   91.5108    9.8834 H       1  UNL1        0.2938
     10 H          59.5100   88.1845    8.6148 H       1  UNL1        0.2924
     11 C          63.4323   90.3318   13.3587 C.ar    1  UNL1        0.1179
     12 C          64.6276   91.1559   12.9815 C.ar    1  UNL1        0.0337
     13 C          65.4496   91.8170   14.0480 C.ar    1  UNL1        0.0608
     14 CL         66.6448   92.6411   13.6708 Cl      1  UNL1       -0.0821
     15 C          65.0763   91.6540   15.4917 C.ar    1  UNL1        0.0321
     16 C          63.8811   90.8299   15.8689 C.ar    1  UNL1        0.0998
     17 N          63.0591   90.1688   14.8023 N.ar    1  UNL1       -0.2407
     18 N          63.1414   85.2847   11.4346 N.am    1  UNL1       -0.3012
     19 C          62.1756   86.0964   10.6233 C.2     1  UNL1        0.2668
     20 O          61.4034   85.4516    9.5107 O.2     1  UNL1       -0.2684
     21 H          63.6482   85.7079   12.1648 H       1  UNL1        0.1497
     22 C          63.9615   83.4070    9.8371 C.3     1  UNL1        0.0213
     23 C          63.3350   83.8280   11.1333 C.3     1  UNL1        0.0719
     24 C          62.9021   82.7923   12.1284 C.3     1  UNL1        0.0180
     25 C          62.4568   83.2089   13.4988 C.3     1  UNL1        0.0016
     26 C          62.0239   82.1733   14.4938 C.3     1  UNL1        0.0001
     27 C          62.0364   80.7211   14.1185 C.3     1  UNL1        0.0000
     28 C          62.4817   80.3045   12.7480 C.3     1  UNL1        0.0001
     29 C          62.9146   81.3401   11.7529 C.3     1  UNL1        0.0016
@<TRIPOS>BOND
     1    23    22    1
     2    23    18    1
     3    18    19   am
     4    19    20    2
     5    19     1    1
     6     1     2   ar
     7     2     3   ar
     8     3    11    1
     9    11    12   ar
    10    12    13   ar
    11    13    14    1
    12    13    15   ar
    13    15    16   ar
    14    16    17   ar
    15     3     4   ar
    16     4     5   ar
    17     5     6    1
    18     5     7   ar
    19     7     8    1
    20    23    24    1
    21    24    25    1
    22    25    26    1
    23    26    27    1
    24    27    28    1
    25    28    29    1
    26     7     1   ar
    27    29    24    1
    28    17    11   ar
    29    18    21    1
    30     6     9    1
    31     8    10    1
@<TRIPOS>MOLECULE
*****
 29 31 0 0 0
SMALL
GASTEIGER

@<TRIPOS>ATOM
      1 C          62.9801   88.3435   12.2591 C.ar    1  UNL1        0.1743
      2 N          63.7648   89.0582   13.3190 N.ar    1  UNL1       -0.2173
      3 C          64.1687   90.4885   13.1168 C.ar    1  UNL1        0.1834
      4 N          63.7878   91.2042   11.8548 N.ar    1  UNL1       -0.1885
      5 C          63.0030   90.4896   10.7949 C.ar    1  UNL1        0.2596
      6 O          62.6221   91.2053    9.5329 O.3     1  UNL1       -0.4898
      7 C          62.5992   89.0592   10.9971 C.ar    1  UNL1        0.2098
      8 O          61.8144   88.3444    9.9372 O.3     1  UNL1       -0.5007
      9 H          62.8744   92.0988    9.4066 H       1  UNL1        0.2938
     10 H          61.5764   88.7915    9.1488 H       1  UNL1        0.2924
     11 C          64.9535   91.2033   14.1767 C.ar    1  UNL1        0.1179
     12 C          66.4113   91.4876   13.9670 C.ar    1  UNL1        0.0337
     13 C          67.1961   92.2024   15.0268 C.ar    1  UNL1        0.0608
     14 CL         68.6538   92.4867   14.8170 Cl      1  UNL1       -0.0821
     15 C          66.5231   92.6328   16.2964 C.ar    1  UNL1        0.0321
     16 C          65.0653   92.3484   16.5062 C.ar    1  UNL1        0.0998
     17 N          64.2805   91.6337   15.4463 N.ar    1  UNL1       -0.2407
     18 N          63.3755   86.0297   13.3727 N.am    1  UNL1       -0.3012
     19 C          62.5762   86.9131   12.4612 C.2     1  UNL1        0.2668
     20 O          61.3730   86.3661   11.7519 O.2     1  UNL1       -0.2684
     21 H          64.1651   86.3887   13.8382 H       1  UNL1        0.1497
     22 C          62.3425   84.1731   14.8681 C.3     1  UNL1        0.0213
     23 C          62.9716   84.5992   13.5748 C.3     1  UNL1        0.0719
     24 C          63.1967   83.5950   12.4836 C.3     1  UNL1        0.0180
     25 C          64.0136   83.9646   11.2810 C.3     1  UNL1        0.0016
     26 C          64.2388   82.9604   10.1898 C.3     1  UNL1        0.0001
     27 C          63.6471   81.5865   10.3011 C.3     1  UNL1        0.0000
     28 C          62.8302   81.2168   11.5037 C.3     1  UNL1        0.0001
     29 C          62.6050   82.2211   12.5949 C.3     1  UNL1        0.0016
@<TRIPOS>BOND
     1    23    22    1
     2    23    18    1
     3    18    19   am
     4    19    20    2
     5    19     1    1
     6     1     2   ar
     7     2     3   ar
     8     3    11    1
     9    11    12   ar
    10    12    13   ar
    11    13    14    1
    12    13    15   ar
    13    15    16   ar
    14    16    17   ar
    15     3     4   ar
    16     4     5   ar
    17     5     6    1
    18     5     7   ar
    19     7     8    1
    20    23    24    1
    21    24    25    1
    22    25    26    1
    23    26    27    1
    24    27    28    1
    25    28    29    1
    26     7     1   ar
    27    29    24    1
    28    17    11   ar
    29    18    21    1
    30     6     9    1
    31     8    10    1
@<TRIPOS>MOLECULE
*****
 29 31 0 0 0
SMALL
GASTEIGER

@<TRIPOS>ATOM
      1 C          62.4592   88.1339   11.8537 C.ar    1  UNL1        0.1743
      2 N          63.4805   89.1118   12.3542 N.ar    1  UNL1       -0.2173
      3 C          63.4136   90.5490   11.9301 C.ar    1  UNL1        0.1834
      4 N          62.3256   91.0083   11.0054 N.ar    1  UNL1       -0.1885
      5 C          61.3043   90.0304   10.5048 C.ar    1  UNL1        0.2596
      6 O          60.2162   90.4896    9.5801 O.3     1  UNL1       -0.4898
      7 C          61.3711   88.5932   10.9289 C.ar    1  UNL1        0.2098
      8 O          60.3498   87.6152   10.4283 O.3     1  UNL1       -0.5007
      9 H          60.1745   91.3874    9.3151 H       1  UNL1        0.2938
     10 H          59.6701   87.9020    9.8507 H       1  UNL1        0.2924
     11 C          64.4349   91.5271   12.4307 C.ar    1  UNL1        0.1179
     12 C          64.9586   92.5971   11.5192 C.ar    1  UNL1        0.0337
     13 C          65.9798   93.5751   12.0197 C.ar    1  UNL1        0.0608
     14 CL         66.5035   94.6451   11.1082 Cl      1  UNL1       -0.0821
     15 C          66.4775   93.4831   13.4318 C.ar    1  UNL1        0.0321
     16 C          65.9538   92.4131   14.3433 C.ar    1  UNL1        0.0998
     17 N          64.9325   91.4350   13.8427 N.ar    1  UNL1       -0.2407
     18 N          63.5993   86.2424   13.2221 N.am    1  UNL1       -0.3012
     19 C          62.5260   86.6966   12.2778 C.2     1  UNL1        0.2668
     20 O          61.5195   85.7136   11.7576 O.2     1  UNL1       -0.2684
     21 H          64.2599   86.8876   13.5635 H       1  UNL1        0.1497
     22 C          63.8056   84.4575   15.0986 C.3     1  UNL1        0.0213
     23 C          63.6661   84.8051   13.6462 C.3     1  UNL1        0.0719
     24 C          63.5934   83.7155   12.6178 C.3     1  UNL1        0.0180
     25 C          62.6856   82.5410   12.8325 C.3     1  UNL1        0.0016
     26 C          62.6129   81.4514   11.8042 C.3     1  UNL1        0.0001
     27 C          63.4480   81.5364   10.5611 C.3     1  UNL1        0.0000
     28 C          64.3559   82.7110   10.3463 C.3     1  UNL1        0.0001
     29 C          64.4286   83.8006   11.3747 C.3     1  UNL1        0.0016
@<TRIPOS>BOND
     1    23    22    1
     2    23    18    1
     3    18    19   am
     4    19    20    2
     5    19     1    1
     6     1     2   ar
     7     2     3   ar
     8     3    11    1
     9    11    12   ar
    10    12    13   ar
    11    13    14    1
    12    13    15   ar
    13    15    16   ar
    14    16    17   ar
    15     3     4   ar
    16     4     5   ar
    17     5     6    1
    18     5     7   ar
    19     7     8    1
    20    23    24    1
    21    24    25    1
    22    25    26    1
    23    26    27    1
    24    27    28    1
    25    28    29    1
    26     7     1   ar
    27    29    24    1
    28    17    11   ar
    29    18    21    1
    30     6     9    1
    31     8    10    1
@<TRIPOS>MOLECULE
*****
 29 31 0 0 0
SMALL
GASTEIGER

@<TRIPOS>ATOM
      1 C          62.4316   87.8728   11.5485 C.ar    1  UNL1        0.1743
      2 N          62.7766   86.5941   12.2526 N.ar    1  UNL1       -0.2173
      3 C          62.4799   85.2757   11.6015 C.ar    1  UNL1        0.1834
      4 N          61.8382   85.2361   10.2463 N.ar    1  UNL1       -0.1885
      5 C          61.4932   86.5148    9.5422 C.ar    1  UNL1        0.2596
      6 O          60.8515   86.4752    8.1870 O.3     1  UNL1       -0.4898
      7 C          61.7899   87.8332   10.1933 C.ar    1  UNL1        0.2098
      8 O          61.4449   89.1120    9.4892 O.3     1  UNL1       -0.5007
      9 H          60.6661   85.6517    7.7802 H       1  UNL1        0.2938
     10 H          61.0440   89.0872    8.6426 H       1  UNL1        0.2924
     11 C          62.8249   83.9969   12.3057 C.ar    1  UNL1        0.1179
     12 C          62.6508   82.6833   11.6029 C.ar    1  UNL1        0.0337
     13 C          62.9957   81.4045   12.3069 C.ar    1  UNL1        0.0608
     14 CL         62.8216   80.0908   11.6041 Cl      1  UNL1       -0.0821
     15 C          63.5149   81.4394   13.7138 C.ar    1  UNL1        0.0321
     16 C          63.6891   82.7531   14.4166 C.ar    1  UNL1        0.0998
     17 N          63.3441   84.0319   13.7125 N.ar    1  UNL1       -0.2407
     18 N          63.9599   89.3521   13.0405 N.am    1  UNL1       -0.3012
     19 C          62.7283   89.1912   12.1996 C.2     1  UNL1        0.2668
     20 O          61.7933   90.3486   12.0098 O.2     1  UNL1       -0.2684
     21 H          64.5736   88.5924   13.1651 H       1  UNL1        0.1497
     22 C          63.8847   90.8988   15.1267 C.3     1  UNL1        0.0213
     23 C          64.2566   90.6705   13.6916 C.3     1  UNL1        0.0719
     24 C          64.9253   91.7605   12.9075 C.3     1  UNL1        0.0180
     25 C          64.6863   91.8774   11.4313 C.3     1  UNL1        0.0016
     26 C          65.3549   92.9674   10.6473 C.3     1  UNL1        0.0001
     27 C          66.2625   93.9406   11.3394 C.3     1  UNL1        0.0000
     28 C          66.5016   93.8238   12.8157 C.3     1  UNL1        0.0001
     29 C          65.8329   92.7337   13.5997 C.3     1  UNL1        0.0016
@<TRIPOS>BOND
     1    23    22    1
     2    23    18    1
     3    18    19   am
     4    19    20    2
     5    19     1    1
     6     1     2   ar
     7     2     3   ar
     8     3    11    1
     9    11    12   ar
    10    12    13   ar
    11    13    14    1
    12    13    15   ar
    13    15    16   ar
    14    16    17   ar
    15     3     4   ar
    16     4     5   ar
    17     5     6    1
    18     5     7   ar
    19     7     8    1
    20    23    24    1
    21    24    25    1
    22    25    26    1
    23    26    27    1
    24    27    28    1
    25    28    29    1
    26     7     1   ar
    27    29    24    1
    28    17    11   ar
    29    18    21    1
    30     6     9    1
    31     8    10    1
@<TRIPOS>MOLECULE
*****
 29 31 0 0 0
SMALL
GASTEIGER

@<TRIPOS>ATOM
      1 C          63.7970   88.4330   15.2791 C.ar    1  UNL1        0.1743
      2 N          63.9285   87.4800   14.1283 N.ar    1  UNL1       -0.2173
      3 C          63.5447   86.0401   14.2994 C.ar    1  UNL1        0.1834
      4 N          63.0295   85.5532   15.6213 N.ar    1  UNL1       -0.1885
      5 C          62.8980   86.5062   16.7721 C.ar    1  UNL1        0.2596
      6 O          62.3828   86.0192   18.0940 O.3     1  UNL1       -0.4898
      7 C          63.2818   87.9461   16.6010 C.ar    1  UNL1        0.2098
      8 O          63.1503   88.8992   17.7519 O.3     1  UNL1       -0.5007
      9 H          62.1430   85.1197   18.2008 H       1  UNL1        0.2938
     10 H          62.8285   88.5950   18.5777 H       1  UNL1        0.2924
     11 C          63.6761   85.0871   13.1485 C.ar    1  UNL1        0.1179
     12 C          63.1594   85.4713   11.7937 C.ar    1  UNL1        0.0337
     13 C          63.2908   84.5183   10.6429 C.ar    1  UNL1        0.0608
     14 CL         62.7740   84.9026    9.2882 Cl      1  UNL1       -0.0821
     15 C          63.9390   83.1810   10.8467 C.ar    1  UNL1        0.0321
     16 C          64.4558   82.7968   12.2015 C.ar    1  UNL1        0.0998
     17 N          64.3243   83.7498   13.3524 N.ar    1  UNL1       -0.2407
     18 N          65.5477   90.2301   14.6041 N.am    1  UNL1       -0.3012
     19 C          64.1808   89.8730   15.1081 C.2     1  UNL1        0.2668
     20 O          63.1977   90.9559   15.4412 O.2     1  UNL1       -0.2684
     21 H          66.1929   89.5194   14.3855 H       1  UNL1        0.1497
     22 C          66.4864   92.4413   15.5938 C.3     1  UNL1        0.0213
     23 C          65.9315   91.6701   14.4331 C.3     1  UNL1        0.0719
     24 C          65.7602   92.3389   13.1014 C.3     1  UNL1        0.0180
     25 C          66.4689   93.6291   12.8134 C.3     1  UNL1        0.0016
     26 C          66.2977   94.2979   11.4817 C.3     1  UNL1        0.0001
     27 C          65.4178   93.6763   10.4379 C.3     1  UNL1        0.0000
     28 C          64.7091   92.3860   10.7259 C.3     1  UNL1        0.0001
     29 C          64.8803   91.7173   12.0576 C.3     1  UNL1        0.0016
@<TRIPOS>BOND
     1    23    22    1
     2    23    18    1
     3    18    19   am
     4    19    20    2
     5    19     1    1
     6     1     2   ar
     7     2     3   ar
     8     3    11    1
     9    11    12   ar
    10    12    13   ar
    11    13    14    1
    12    13    15   ar
    13    15    16   ar
    14    16    17   ar
    15     3     4   ar
    16     4     5   ar
    17     5     6    1
    18     5     7   ar
    19     7     8    1
    20    23    24    1
    21    24    25    1
    22    25    26    1
    23    26    27    1
    24    27    28    1
    25    28    29    1
    26     7     1   ar
    27    29    24    1
    28    17    11   ar
    29    18    21    1
    30     6     9    1
    31     8    10    1
@<TRIPOS>MOLECULE
*****
 29 31 0 0 0
SMALL
GASTEIGER

@<TRIPOS>ATOM
      1 C          63.7295   88.1250   15.2752 C.ar    1  UNL1        0.1743
      2 N          63.8813   87.0564   14.2335 N.ar    1  UNL1       -0.2173
      3 C          63.5146   85.6380   14.5552 C.ar    1  UNL1        0.1834
      4 N          62.9961   85.2881   15.9185 N.ar    1  UNL1       -0.1885
      5 C          62.8442   86.3566   16.9602 C.ar    1  UNL1        0.2596
      6 O          62.3257   86.0067   18.3235 O.3     1  UNL1       -0.4898
      7 C          63.2110   87.7750   16.6386 C.ar    1  UNL1        0.2098
      8 O          63.0592   88.8436   17.6803 O.3     1  UNL1       -0.5007
      9 H          62.0966   85.1206   18.5244 H       1  UNL1        0.2938
     10 H          62.7352   88.6251   18.5319 H       1  UNL1        0.2924
     11 C          63.6664   84.5694   13.5134 C.ar    1  UNL1        0.1179
     12 C          63.4340   84.8933   12.0674 C.ar    1  UNL1        0.0337
     13 C          63.5858   83.8248   11.0257 C.ar    1  UNL1        0.0608
     14 CL         63.3535   84.1487    9.5796 Cl      1  UNL1       -0.0821
     15 C          63.9700   82.4323   11.4300 C.ar    1  UNL1        0.0321
     16 C          64.2023   82.1084   12.8761 C.ar    1  UNL1        0.0998
     17 N          64.0505   83.1770   13.9178 N.ar    1  UNL1       -0.2407
     18 N          65.0667   89.8349   13.8477 N.am    1  UNL1       -0.3012
     19 C          64.0962   89.5435   14.9536 C.2     1  UNL1        0.2668
     20 O          63.4924   90.6705   15.7380 O.2     1  UNL1       -0.2684
     21 H          65.4630   89.0952   13.3329 H       1  UNL1        0.1497
     22 C          64.6426   92.0202   12.5080 C.3     1  UNL1        0.0213
     23 C          65.4335   91.2535   13.5261 C.3     1  UNL1        0.0719
     24 C          66.5911   91.9052   14.2226 C.3     1  UNL1        0.0180
     25 C          67.9635   91.8362   13.6214 C.3     1  UNL1        0.0016
     26 C          69.1212   92.4879   14.3179 C.3     1  UNL1        0.0001
     27 C          68.9063   93.2086   15.6157 C.3     1  UNL1        0.0000
     28 C          67.5338   93.2777   16.2170 C.3     1  UNL1        0.0001
     29 C          66.3762   92.6259   15.5205 C.3     1  UNL1        0.0016
@<TRIPOS>BOND
     1    23    22    1
     2    23    18    1
     3    18    19   am
     4    19    20    2
     5    19     1    1
     6     1     2   ar
     7     2     3   ar
     8     3    11    1
     9    11    12   ar
    10    12    13   ar
    11    13    14    1
    12    13    15   ar
    13    15    16   ar
    14    16    17   ar
    15     3     4   ar
    16     4     5   ar
    17     5     6    1
    18     5     7   ar
    19     7     8    1
    20    23    24    1
    21    24    25    1
    22    25    26    1
    23    26    27    1
    24    27    28    1
    25    28    29    1
    26     7     1   ar
    27    29    24    1
    28    17    11   ar
    29    18    21    1
    30     6     9    1
    31     8    10    1
