@<TRIPOS>MOLECULE
*****
 31 35 0 0 0
SMALL
GASTEIGER

@<TRIPOS>ATOM
      1 C          63.3643   84.1024   15.6357 C.3     1  UNL1        0.0731
      2 N          63.4100   84.0718   14.1367 N.3     1  UNL1       -0.2712
      3 C          64.1408   83.0661   13.2973 C.3     1  UNL1        0.0738
      4 C          63.9154   83.4143   11.8558 C.3     1  UNL1        0.0372
      5 C          64.2277   83.0080   10.4461 C.3     1  UNL1        0.0245
      6 C          63.5508   83.9777    9.5233 C.3     1  UNL1        0.0909
      7 N          62.8200   84.9834   10.3628 N.pl3   1  UNL1       -0.3077
      8 C          63.0454   84.6352   11.8043 C.3     1  UNL1        0.0901
      9 C          62.7330   85.0415   13.2140 C.3     1  UNL1        0.0921
     10 C          62.0067   86.1350    9.8507 C.ar    1  UNL1        0.0480
     11 C          62.2088   87.5078   10.4202 C.ar    1  UNL1        0.0168
     12 C          61.3955   88.6595    9.9080 C.ar    1  UNL1        0.0309
     13 C          60.3801   88.4382    8.8264 C.ar    1  UNL1        0.1402
     14 F          59.5668   89.5899    8.3142 F       1  UNL1       -0.2042
     15 C          60.1780   87.0653    8.2568 C.ar    1  UNL1        0.0309
     16 C          60.9913   85.9137    8.7689 C.ar    1  UNL1        0.0168
     17 C          62.7223   85.2589   16.3430 C.3     1  UNL1        0.0294
     18 C          63.4805   86.5401   16.5270 C.3     1  UNL1        0.0666
     19 S          62.7467   87.8040   16.8647 S.3     1  UNL1       -0.0756
     20 C          64.2843   90.8279   14.9787 C.ar    1  UNL1        0.2029
     21 N          63.8166   91.4831   16.2445 N.ar    1  UNL1       -0.1250
     22 N          63.1837   90.4301   17.1050 N.ar    1  UNL1       -0.1220
     23 C          63.2602   89.1241   16.3711 C.ar    1  UNL1        0.1933
     24 N          63.9404   89.3699   15.0570 N.ar    1  UNL1       -0.2860
     25 C          64.2266   88.3389   14.0058 C.3     1  UNL1        0.1341
     26 C          67.4565   91.5789   14.8260 C.3     1  UNL1        0.0556
     27 C          66.4327   91.8560   13.7653 C.ar    1  UNL1        0.1001
     28 N          66.6873   92.5270   12.4481 N.ar    1  UNL1       -0.2085
     29 C          65.3866   92.5965   11.7042 C.ar    1  UNL1        0.2849
     30 O          64.3281   91.9685   12.5616 O.2     1  UNL1       -0.4283
     31 C          64.9747   91.5108   13.8354 C.ar    1  UNL1        0.1964
@<TRIPOS>BOND
     1    26    27    1
     2    27    28   ar
     3    28    29   ar
     4    29    30   ar
     5    30    31   ar
     6    31    20    1
     7    20    21   ar
     8    21    22   ar
     9    22    23   ar
    10    23    19    1
    11    19    18    1
    12    18    17    1
    13    17     1    1
    14     1     2    1
    15     2     3    1
    16     3     4    1
    17     4     5    1
    18     5     6    1
    19     6     7    1
    20     7    10    1
    21    10    11   ar
    22    11    12   ar
    23    12    13   ar
    24    13    14    1
    25    13    15   ar
    26    15    16   ar
    27     7     8    1
    28     8     9    1
    29    23    24   ar
    30    24    25    1
    31    31    27   ar
    32    24    20   ar
    33     9     2    1
    34     8     4    1
    35    16    10   ar
@<TRIPOS>MOLECULE
*****
 31 35 0 0 0
SMALL
GASTEIGER

@<TRIPOS>ATOM
      1 C          60.8506   87.3269    8.5090 C.3     1  UNL1        0.0731
      2 N          61.6802   86.3582    9.2986 N.3     1  UNL1       -0.2712
      3 C          62.4589   85.2044    8.7398 C.3     1  UNL1        0.0738
      4 C          63.1366   84.5064    9.8815 C.3     1  UNL1        0.0372
      5 C          64.0368   83.3619   10.2418 C.3     1  UNL1        0.0245
      6 C          64.2333   83.3769   11.7288 C.3     1  UNL1        0.0909
      7 N          63.4545   84.5309   12.2876 N.pl3   1  UNL1       -0.3077
      8 C          62.7768   85.2288   11.1459 C.3     1  UNL1        0.0901
      9 C          61.8767   86.3734   10.7856 C.3     1  UNL1        0.0921
     10 C          63.3686   84.9186   13.7340 C.ar    1  UNL1        0.0480
     11 C          62.4367   84.1858   14.6529 C.ar    1  UNL1        0.0168
     12 C          62.3508   84.5736   16.0994 C.ar    1  UNL1        0.0309
     13 C          63.1969   85.6942   16.6269 C.ar    1  UNL1        0.1402
     14 F          63.1110   86.0819   18.0734 F       1  UNL1       -0.2042
     15 C          64.1289   86.4270   15.7081 C.ar    1  UNL1        0.0309
     16 C          64.2148   86.0393   14.2616 C.ar    1  UNL1        0.0168
     17 C          60.1310   88.4419    9.2082 C.3     1  UNL1        0.0294
     18 C          60.8638   89.7020    9.5623 C.3     1  UNL1        0.0666
     19 S          61.4796   89.8546   10.9215 S.3     1  UNL1       -0.0756
     20 C          64.6211   91.8117   12.0905 C.ar    1  UNL1        0.2029
     21 N          64.4987   92.2811   10.6711 N.ar    1  UNL1       -0.1250
     22 N          63.3070   91.6051   10.0604 N.ar    1  UNL1       -0.1220
     23 C          62.6929   90.7179   11.1024 C.ar    1  UNL1        0.1933
     24 N          63.5050   90.8456   12.3571 N.ar    1  UNL1       -0.2860
     25 C          63.2465   90.1323   13.6511 C.3     1  UNL1        0.1341
     26 C          67.8287   91.9696   11.5107 C.3     1  UNL1        0.0556
     27 C          67.1490   92.3068   12.8047 C.ar    1  UNL1        0.1001
     28 N          67.8242   92.7758   14.0593 N.ar    1  UNL1       -0.2085
     29 C          66.7672   92.9930   15.1012 C.ar    1  UNL1        0.2849
     30 O          65.4387   92.6583   14.4905 O.2     1  UNL1       -0.4283
     31 C          65.6746   92.2342   13.0712 C.ar    1  UNL1        0.1964
@<TRIPOS>BOND
     1    26    27    1
     2    27    28   ar
     3    28    29   ar
     4    29    30   ar
     5    30    31   ar
     6    31    20    1
     7    20    21   ar
     8    21    22   ar
     9    22    23   ar
    10    23    19    1
    11    19    18    1
    12    18    17    1
    13    17     1    1
    14     1     2    1
    15     2     3    1
    16     3     4    1
    17     4     5    1
    18     5     6    1
    19     6     7    1
    20     7    10    1
    21    10    11   ar
    22    11    12   ar
    23    12    13   ar
    24    13    14    1
    25    13    15   ar
    26    15    16   ar
    27     7     8    1
    28     8     9    1
    29    23    24   ar
    30    24    25    1
    31    31    27   ar
    32    24    20   ar
    33     9     2    1
    34     8     4    1
    35    16    10   ar
@<TRIPOS>MOLECULE
*****
 31 35 0 0 0
SMALL
GASTEIGER

@<TRIPOS>ATOM
      1 C          64.4270   88.3620   14.8312 C.3     1  UNL1        0.0731
      2 N          63.8422   87.4259   13.8154 N.3     1  UNL1       -0.2712
      3 C          63.9903   85.9332   13.8037 C.3     1  UNL1        0.0738
      4 C          63.2463   85.4030   12.6141 C.3     1  UNL1        0.0372
      5 C          62.8780   84.1527   11.8716 C.3     1  UNL1        0.0245
      6 C          62.0425   84.5449   10.6891 C.3     1  UNL1        0.0909
      7 N          61.8945   86.0376   10.7008 N.pl3   1  UNL1       -0.3077
      8 C          62.6385   86.5679   11.8905 C.3     1  UNL1        0.0901
      9 C          63.0068   87.8181   12.6330 C.3     1  UNL1        0.0921
     10 C          61.1357   86.8562    9.6988 C.ar    1  UNL1        0.0480
     11 C          60.3535   86.1773    8.6138 C.ar    1  UNL1        0.0168
     12 C          59.5947   86.9959    7.6117 C.ar    1  UNL1        0.0309
     13 C          59.6181   88.4934    7.6947 C.ar    1  UNL1        0.1402
     14 F          58.8592   89.3120    6.6926 F       1  UNL1       -0.2042
     15 C          60.4003   89.1724    8.7797 C.ar    1  UNL1        0.0309
     16 C          61.1591   88.3538    9.7818 C.ar    1  UNL1        0.0168
     17 C          63.5365   89.3118   15.5760 C.3     1  UNL1        0.0294
     18 C          63.8116   90.7858   15.5359 C.3     1  UNL1        0.0666
     19 S          65.0806   91.2954   14.9196 S.3     1  UNL1       -0.0756
     20 C          65.5640   93.0520   11.4923 C.ar    1  UNL1        0.2029
     21 N          64.6225   91.9451   11.1205 N.ar    1  UNL1       -0.1250
     22 N          64.3268   91.1523   12.3591 N.ar    1  UNL1       -0.1220
     23 C          65.0856   91.7693   13.4965 C.ar    1  UNL1        0.1933
     24 N          65.8502   92.9434   12.9609 N.ar    1  UNL1       -0.2860
     25 C          66.7441   93.8497   13.7543 C.3     1  UNL1        0.1341
     26 C          68.1122   92.6567    9.4922 C.3     1  UNL1        0.0556
     27 C          67.2927   93.9043    9.6402 C.ar    1  UNL1        0.1001
     28 N          67.5006   95.1893    8.8948 N.ar    1  UNL1       -0.2085
     29 C          66.4579   96.1652    9.3535 C.ar    1  UNL1        0.2849
     30 O          65.6055   95.4833   10.3824 O.2     1  UNL1       -0.4283
     31 C          66.1215   94.0860   10.5595 C.ar    1  UNL1        0.1964
@<TRIPOS>BOND
     1    26    27    1
     2    27    28   ar
     3    28    29   ar
     4    29    30   ar
     5    30    31   ar
     6    31    20    1
     7    20    21   ar
     8    21    22   ar
     9    22    23   ar
    10    23    19    1
    11    19    18    1
    12    18    17    1
    13    17     1    1
    14     1     2    1
    15     2     3    1
    16     3     4    1
    17     4     5    1
    18     5     6    1
    19     6     7    1
    20     7    10    1
    21    10    11   ar
    22    11    12   ar
    23    12    13   ar
    24    13    14    1
    25    13    15   ar
    26    15    16   ar
    27     7     8    1
    28     8     9    1
    29    23    24   ar
    30    24    25    1
    31    31    27   ar
    32    24    20   ar
    33     9     2    1
    34     8     4    1
    35    16    10   ar
@<TRIPOS>MOLECULE
*****
 31 35 0 0 0
SMALL
GASTEIGER

@<TRIPOS>ATOM
      1 C          64.2504   89.1756   14.1422 C.3     1  UNL1        0.0731
      2 N          63.2229   89.2545   13.0522 N.3     1  UNL1       -0.2712
      3 C          62.1846   90.3256   12.8952 C.3     1  UNL1        0.0738
      4 C          61.3733   90.0092   11.6739 C.3     1  UNL1        0.0372
      5 C          60.2302   90.4756   10.8220 C.3     1  UNL1        0.0245
      6 C          60.0606   89.4972    9.6976 C.3     1  UNL1        0.0909
      7 N          61.0989   88.4261    9.8547 N.pl3   1  UNL1       -0.3077
      8 C          61.9102   88.7425   11.0760 C.3     1  UNL1        0.0901
      9 C          63.0533   88.2761   11.9279 C.3     1  UNL1        0.0921
     10 C          61.2921   87.2459    8.9493 C.ar    1  UNL1        0.0480
     11 C          62.6047   86.5202    8.9327 C.ar    1  UNL1        0.0168
     12 C          62.7979   85.3399    8.0273 C.ar    1  UNL1        0.0309
     13 C          61.6784   84.8854    7.1385 C.ar    1  UNL1        0.1402
     14 F          61.8715   83.7052    6.2331 F       1  UNL1       -0.2042
     15 C          60.3656   85.6111    7.1550 C.ar    1  UNL1        0.0309
     16 C          60.1725   86.7913    8.0604 C.ar    1  UNL1        0.0168
     17 C          63.9760   89.7999   15.4782 C.3     1  UNL1        0.0294
     18 C          63.0060   89.1544   16.4228 C.3     1  UNL1        0.0666
     19 S          63.3575   87.8566   17.0878 S.3     1  UNL1       -0.0756
     20 C          62.7174   84.4920   15.2614 C.ar    1  UNL1        0.2029
     21 N          61.4404   84.6510   16.0322 N.ar    1  UNL1       -0.1250
     22 N          61.5248   85.9307   16.8102 N.ar    1  UNL1       -0.1220
     23 C          62.8539   86.5627   16.5202 C.ar    1  UNL1        0.1933
     24 N          63.5909   85.6736   15.5630 N.ar    1  UNL1       -0.2860
     25 C          64.9610   85.9224   15.0053 C.3     1  UNL1        0.1341
     26 C          62.7399   84.5852   11.9994 C.3     1  UNL1        0.0556
     27 C          63.0708   83.3947   12.8498 C.ar    1  UNL1        0.1001
     28 N          63.4702   82.0379   12.3501 N.ar    1  UNL1       -0.2085
     29 C          63.7067   81.1565   13.5406 C.ar    1  UNL1        0.2849
     30 O          63.4535   81.9686   14.7761 O.2     1  UNL1       -0.4283
     31 C          63.0605   83.3518   14.3491 C.ar    1  UNL1        0.1964
@<TRIPOS>BOND
     1    26    27    1
     2    27    28   ar
     3    28    29   ar
     4    29    30   ar
     5    30    31   ar
     6    31    20    1
     7    20    21   ar
     8    21    22   ar
     9    22    23   ar
    10    23    19    1
    11    19    18    1
    12    18    17    1
    13    17     1    1
    14     1     2    1
    15     2     3    1
    16     3     4    1
    17     4     5    1
    18     5     6    1
    19     6     7    1
    20     7    10    1
    21    10    11   ar
    22    11    12   ar
    23    12    13   ar
    24    13    14    1
    25    13    15   ar
    26    15    16   ar
    27     7     8    1
    28     8     9    1
    29    23    24   ar
    30    24    25    1
    31    31    27   ar
    32    24    20   ar
    33     9     2    1
    34     8     4    1
    35    16    10   ar
@<TRIPOS>MOLECULE
*****
 31 35 0 0 0
SMALL
GASTEIGER

@<TRIPOS>ATOM
      1 C          61.3633   89.6247   11.6980 C.3     1  UNL1        0.0731
      2 N          62.6288   90.2473   12.2089 N.3     1  UNL1       -0.2712
      3 C          63.2538   90.0006   13.5499 C.3     1  UNL1        0.0738
      4 C          64.5027   90.8267   13.6382 C.3     1  UNL1        0.0372
      5 C          65.6608   91.1848   14.5216 C.3     1  UNL1        0.0245
      6 C          66.5235   92.1634   13.7811 C.3     1  UNL1        0.0909
      7 N          65.8984   92.4101   12.4400 N.pl3   1  UNL1       -0.3077
      8 C          64.6495   91.5840   12.3517 C.3     1  UNL1        0.0901
      9 C          63.4913   91.2258   11.4683 C.3     1  UNL1        0.0921
     10 C          66.4290   93.3227   11.3744 C.ar    1  UNL1        0.0480
     11 C          66.1573   94.7961   11.4452 C.ar    1  UNL1        0.0168
     12 C          66.6880   95.7087   10.3795 C.ar    1  UNL1        0.0309
     13 C          67.4903   95.1478    9.2431 C.ar    1  UNL1        0.1402
     14 F          68.0210   96.0604    8.1774 F       1  UNL1       -0.2042
     15 C          67.7621   93.6743    9.1722 C.ar    1  UNL1        0.0309
     16 C          67.2314   92.7617   10.2379 C.ar    1  UNL1        0.0168
     17 C          61.3053   89.0821   10.3008 C.3     1  UNL1        0.0294
     18 C          62.3699   88.1431    9.8159 C.3     1  UNL1        0.0666
     19 S          61.9871   86.8508    9.1578 S.3     1  UNL1       -0.0756
     20 C          63.1746   83.6867   11.0668 C.ar    1  UNL1        0.2029
     21 N          63.7829   83.4552    9.7153 N.ar    1  UNL1       -0.1250
     22 N          63.4121   84.6123    8.8357 N.ar    1  UNL1       -0.1220
     23 C          62.5746   85.5589    9.6436 C.ar    1  UNL1        0.1933
     24 N          62.4278   84.9869   11.0224 N.ar    1  UNL1       -0.2860
     25 C          61.6678   85.6064   12.1576 C.3     1  UNL1        0.1341
     26 C          64.7006   84.3774   13.8675 C.3     1  UNL1        0.0556
     27 C          63.9938   83.0951   13.5415 C.ar    1  UNL1        0.1001
     28 N          63.8643   81.9052   14.4455 N.ar    1  UNL1       -0.2085
     29 C          63.0829   80.8523   13.7169 C.ar    1  UNL1        0.2849
     30 O          62.7294   81.3915   12.3626 O.2     1  UNL1       -0.4283
     31 C          63.2924   82.7777   12.2542 C.ar    1  UNL1        0.1964
@<TRIPOS>BOND
     1    26    27    1
     2    27    28   ar
     3    28    29   ar
     4    29    30   ar
     5    30    31   ar
     6    31    20    1
     7    20    21   ar
     8    21    22   ar
     9    22    23   ar
    10    23    19    1
    11    19    18    1
    12    18    17    1
    13    17     1    1
    14     1     2    1
    15     2     3    1
    16     3     4    1
    17     4     5    1
    18     5     6    1
    19     6     7    1
    20     7    10    1
    21    10    11   ar
    22    11    12   ar
    23    12    13   ar
    24    13    14    1
    25    13    15   ar
    26    15    16   ar
    27     7     8    1
    28     8     9    1
    29    23    24   ar
    30    24    25    1
    31    31    27   ar
    32    24    20   ar
    33     9     2    1
    34     8     4    1
    35    16    10   ar
@<TRIPOS>MOLECULE
*****
 31 35 0 0 0
SMALL
GASTEIGER

@<TRIPOS>ATOM
      1 C          59.7493   88.5803   11.1122 C.3     1  UNL1        0.0731
      2 N          60.6805   87.5343   10.5750 N.3     1  UNL1       -0.2712
      3 C          61.2577   87.4945    9.1910 C.3     1  UNL1        0.0738
      4 C          62.1320   86.2800    9.0882 C.3     1  UNL1        0.0372
      5 C          63.0290   85.5048    8.1693 C.3     1  UNL1        0.0245
      6 C          63.5466   84.3148    8.9217 C.3     1  UNL1        0.0909
      7 N          62.9694   84.3546   10.3057 N.pl3   1  UNL1       -0.3077
      8 C          62.0951   85.5691   10.4085 C.3     1  UNL1        0.0901
      9 C          61.1981   86.3443   11.3274 C.3     1  UNL1        0.0921
     10 C          63.2222   83.3553   11.3954 C.ar    1  UNL1        0.0480
     11 C          63.9031   83.7827   12.6617 C.ar    1  UNL1        0.0168
     12 C          64.1558   82.7834   13.7515 C.ar    1  UNL1        0.0309
     13 C          63.7277   81.3567   13.5749 C.ar    1  UNL1        0.1402
     14 F          63.9804   80.3574   14.6646 F       1  UNL1       -0.2042
     15 C          63.0467   80.9293   12.3085 C.ar    1  UNL1        0.0309
     16 C          62.7940   81.9286   11.2187 C.ar    1  UNL1        0.0168
     17 C          60.3020   89.8263   11.7382 C.3     1  UNL1        0.0294
     18 C          61.1623   90.7531   10.9313 C.3     1  UNL1        0.0666
     19 S          62.6417   90.5200   10.8468 S.3     1  UNL1       -0.0756
     20 C          65.1430   91.0412   13.7687 C.ar    1  UNL1        0.2029
     21 N          64.3446   89.8766   14.2748 N.ar    1  UNL1       -0.1250
     22 N          63.3104   89.5396   13.2419 N.ar    1  UNL1       -0.1220
     23 C          63.4697   90.4960   12.0974 C.ar    1  UNL1        0.1933
     24 N          64.6022   91.4240   12.4229 N.ar    1  UNL1       -0.2860
     25 C          65.1057   92.5391   11.5551 C.3     1  UNL1        0.1341
     26 C          65.0003   92.4591   16.7045 C.3     1  UNL1        0.0556
     27 C          66.2165   92.3580   15.8324 C.ar    1  UNL1        0.1001
     28 N          67.5807   92.8909   16.1565 N.ar    1  UNL1       -0.2085
     29 C          68.4894   92.5685   15.0075 C.ar    1  UNL1        0.2849
     30 O          67.6868   91.8364   13.9731 O.2     1  UNL1       -0.4283
     31 C          66.2821   91.7063   14.4830 C.ar    1  UNL1        0.1964
@<TRIPOS>BOND
     1    26    27    1
     2    27    28   ar
     3    28    29   ar
     4    29    30   ar
     5    30    31   ar
     6    31    20    1
     7    20    21   ar
     8    21    22   ar
     9    22    23   ar
    10    23    19    1
    11    19    18    1
    12    18    17    1
    13    17     1    1
    14     1     2    1
    15     2     3    1
    16     3     4    1
    17     4     5    1
    18     5     6    1
    19     6     7    1
    20     7    10    1
    21    10    11   ar
    22    11    12   ar
    23    12    13   ar
    24    13    14    1
    25    13    15   ar
    26    15    16   ar
    27     7     8    1
    28     8     9    1
    29    23    24   ar
    30    24    25    1
    31    31    27   ar
    32    24    20   ar
    33     9     2    1
    34     8     4    1
    35    16    10   ar
@<TRIPOS>MOLECULE
*****
 31 35 0 0 0
SMALL
GASTEIGER

@<TRIPOS>ATOM
      1 C          63.5120   88.4543   16.5406 C.3     1  UNL1        0.0731
      2 N          63.4100   87.0994   15.9052 N.3     1  UNL1       -0.2712
      3 C          63.3368   85.7886   16.6308 C.3     1  UNL1        0.0738
      4 C          63.2450   84.6964   15.6067 C.3     1  UNL1        0.0372
      5 C          63.1430   83.2113   15.4222 C.3     1  UNL1        0.0245
      6 C          63.0964   82.9292   13.9497 C.3     1  UNL1        0.0909
      7 N          63.1696   84.2401   13.2241 N.pl3   1  UNL1       -0.3077
      8 C          63.2615   85.3322   14.2482 C.3     1  UNL1        0.0901
      9 C          63.3635   86.8173   14.4327 C.3     1  UNL1        0.0921
     10 C          63.1538   84.4261   11.7358 C.ar    1  UNL1        0.0480
     11 C          63.9108   83.4783   10.8534 C.ar    1  UNL1        0.0168
     12 C          63.8949   83.6643    9.3650 C.ar    1  UNL1        0.0309
     13 C          63.1221   84.7981    8.7591 C.ar    1  UNL1        0.1402
     14 F          63.1062   84.9841    7.2707 F       1  UNL1       -0.2042
     15 C          62.3651   85.7460    9.6415 C.ar    1  UNL1        0.0309
     16 C          62.3809   85.5600   11.1298 C.ar    1  UNL1        0.0168
     17 C          63.1701   89.6816   15.7488 C.3     1  UNL1        0.0294
     18 C          64.2633   90.5223   15.1589 C.3     1  UNL1        0.0666
     19 S          64.2829   90.8008   13.6851 S.3     1  UNL1       -0.0756
     20 C          66.2124   93.4627   11.6218 C.ar    1  UNL1        0.2029
     21 N          66.8560   93.6169   12.9680 N.ar    1  UNL1       -0.1250
     22 N          66.2115   92.6386   13.9047 N.ar    1  UNL1       -0.1220
     23 C          65.1696   91.8797   13.1375 C.ar    1  UNL1        0.1933
     24 N          65.1701   92.3890   11.7266 N.ar    1  UNL1       -0.2860
     25 C          64.2840   91.9089   10.6156 C.3     1  UNL1        0.1341
     26 C          68.3241   92.5646    9.3016 C.3     1  UNL1        0.0556
     27 C          67.5221   93.8320    9.3211 C.ar    1  UNL1        0.1001
     28 N          67.5500   94.9092    8.2776 N.ar    1  UNL1       -0.2085
     29 C          66.5965   95.9878    8.6992 C.ar    1  UNL1        0.2849
     30 O          65.9794   95.5772   10.0032 O.2     1  UNL1       -0.4283
     31 C          66.5515   94.2449   10.3876 C.ar    1  UNL1        0.1964
@<TRIPOS>BOND
     1    26    27    1
     2    27    28   ar
     3    28    29   ar
     4    29    30   ar
     5    30    31   ar
     6    31    20    1
     7    20    21   ar
     8    21    22   ar
     9    22    23   ar
    10    23    19    1
    11    19    18    1
    12    18    17    1
    13    17     1    1
    14     1     2    1
    15     2     3    1
    16     3     4    1
    17     4     5    1
    18     5     6    1
    19     6     7    1
    20     7    10    1
    21    10    11   ar
    22    11    12   ar
    23    12    13   ar
    24    13    14    1
    25    13    15   ar
    26    15    16   ar
    27     7     8    1
    28     8     9    1
    29    23    24   ar
    30    24    25    1
    31    31    27   ar
    32    24    20   ar
    33     9     2    1
    34     8     4    1
    35    16    10   ar
@<TRIPOS>MOLECULE
*****
 31 35 0 0 0
SMALL
GASTEIGER

@<TRIPOS>ATOM
      1 C          59.9742   88.8028   10.9420 C.3     1  UNL1        0.0731
      2 N          60.8468   87.6709   10.4867 N.3     1  UNL1       -0.2712
      3 C          61.5493   87.5758    9.1648 C.3     1  UNL1        0.0738
      4 C          62.3066   86.2814    9.1345 C.3     1  UNL1        0.0372
      5 C          63.2089   85.4226    8.2987 C.3     1  UNL1        0.0245
      6 C          63.5322   84.1870    9.0854 C.3     1  UNL1        0.0909
      7 N          62.8296   84.2821   10.4073 N.pl3   1  UNL1       -0.3077
      8 C          62.0722   85.5765   10.4376 C.3     1  UNL1        0.0901
      9 C          61.1700   86.4353   11.2733 C.3     1  UNL1        0.0921
     10 C          62.8763   83.2620   11.5060 C.ar    1  UNL1        0.0480
     11 C          63.0065   81.8055   11.1720 C.ar    1  UNL1        0.0168
     12 C          63.0532   80.7853   12.2707 C.ar    1  UNL1        0.0309
     13 C          62.9696   81.2216   13.7034 C.ar    1  UNL1        0.1402
     14 F          63.0163   80.2015   14.8020 F       1  UNL1       -0.2042
     15 C          62.8394   82.6782   14.0374 C.ar    1  UNL1        0.0309
     16 C          62.7927   83.6984   12.9387 C.ar    1  UNL1        0.0168
     17 C          60.5935   90.0471   11.5062 C.3     1  UNL1        0.0294
     18 C          61.4740   89.9637   12.7178 C.3     1  UNL1        0.0666
     19 S          62.9255   89.6167   12.5675 S.3     1  UNL1       -0.0756
     20 C          65.3428   92.5384   11.7388 C.ar    1  UNL1        0.2029
     21 N          65.7399   92.2252   13.1510 N.ar    1  UNL1       -0.1250
     22 N          64.8827   91.0927   13.6333 N.ar    1  UNL1       -0.1220
     23 C          63.9558   90.7058   12.5192 C.ar    1  UNL1        0.1933
     24 N          64.2401   91.5993   11.3483 N.ar    1  UNL1       -0.2860
     25 C          63.5440   91.5605   10.0202 C.3     1  UNL1        0.1341
     26 C          67.9507   92.1945    9.8075 C.3     1  UNL1        0.0556
     27 C          67.1416   93.4455    9.9820 C.ar    1  UNL1        0.1001
     28 N          67.3891   94.7580    9.2994 N.ar    1  UNL1       -0.2085
     29 C          66.3434   95.7273    9.7652 C.ar    1  UNL1        0.2849
     30 O          65.4495   95.0138   10.7357 O.2     1  UNL1       -0.4283
     31 C          65.9429   93.6035   10.8697 C.ar    1  UNL1        0.1964
@<TRIPOS>BOND
     1    26    27    1
     2    27    28   ar
     3    28    29   ar
     4    29    30   ar
     5    30    31   ar
     6    31    20    1
     7    20    21   ar
     8    21    22   ar
     9    22    23   ar
    10    23    19    1
    11    19    18    1
    12    18    17    1
    13    17     1    1
    14     1     2    1
    15     2     3    1
    16     3     4    1
    17     4     5    1
    18     5     6    1
    19     6     7    1
    20     7    10    1
    21    10    11   ar
    22    11    12   ar
    23    12    13   ar
    24    13    14    1
    25    13    15   ar
    26    15    16   ar
    27     7     8    1
    28     8     9    1
    29    23    24   ar
    30    24    25    1
    31    31    27   ar
    32    24    20   ar
    33     9     2    1
    34     8     4    1
    35    16    10   ar
@<TRIPOS>MOLECULE
*****
 31 35 0 0 0
SMALL
GASTEIGER

@<TRIPOS>ATOM
      1 C          62.2261   88.4493   11.4807 C.3     1  UNL1        0.0731
      2 N          62.8203   87.3072   12.2505 N.3     1  UNL1       -0.2712
      3 C          63.6207   87.4175   13.5144 C.3     1  UNL1        0.0738
      4 C          64.0135   86.0328   13.9365 C.3     1  UNL1        0.0372
      5 C          64.7510   85.2452   14.9785 C.3     1  UNL1        0.0245
      6 C          64.6493   83.7923   14.6196 C.3     1  UNL1        0.0909
      7 N          63.8489   83.6820   13.3557 N.pl3   1  UNL1       -0.3077
      8 C          63.4560   85.0667   12.9336 C.3     1  UNL1        0.0901
      9 C          62.7186   85.8543   11.8916 C.3     1  UNL1        0.0921
     10 C          63.5023   82.4103   12.6397 C.ar    1  UNL1        0.0480
     11 C          62.9701   81.2377   13.4089 C.ar    1  UNL1        0.0168
     12 C          62.6235   79.9660   12.6929 C.ar    1  UNL1        0.0309
     13 C          62.8091   79.8669   11.2078 C.ar    1  UNL1        0.1402
     14 F          62.4625   78.5951   10.4918 F       1  UNL1       -0.2042
     15 C          63.3414   81.0395   10.4385 C.ar    1  UNL1        0.0309
     16 C          63.6880   82.3112   11.1545 C.ar    1  UNL1        0.0168
     17 C          62.9762   89.7425   11.3588 C.3     1  UNL1        0.0294
     18 C          63.0025   90.7057   12.5083 C.3     1  UNL1        0.0666
     19 S          64.2749   90.9294   13.2705 S.3     1  UNL1       -0.0756
     20 C          66.2376   93.9427   11.8098 C.ar    1  UNL1        0.2029
     21 N          66.6064   94.0326   13.2610 N.ar    1  UNL1       -0.1250
     22 N          65.9160   92.9147   13.9848 N.ar    1  UNL1       -0.1220
     23 C          65.1206   92.1340   12.9809 C.ar    1  UNL1        0.1933
     24 N          65.3193   92.7693   11.6367 N.ar    1  UNL1       -0.2860
     25 C          64.7072   92.3116   10.3460 C.3     1  UNL1        0.1341
     26 C          68.0924   93.1121    9.2565 C.3     1  UNL1        0.0556
     27 C          67.5576   94.4826    9.5490 C.ar    1  UNL1        0.1001
     28 N          67.7814   95.7120    8.7193 N.ar    1  UNL1       -0.2085
     29 C          67.0672   96.8537    9.3801 C.ar    1  UNL1        0.2849
     30 O          66.4019   96.3298   10.6182 O.2     1  UNL1       -0.4283
     31 C          66.7050   94.8645   10.7226 C.ar    1  UNL1        0.1964
@<TRIPOS>BOND
     1    26    27    1
     2    27    28   ar
     3    28    29   ar
     4    29    30   ar
     5    30    31   ar
     6    31    20    1
     7    20    21   ar
     8    21    22   ar
     9    22    23   ar
    10    23    19    1
    11    19    18    1
    12    18    17    1
    13    17     1    1
    14     1     2    1
    15     2     3    1
    16     3     4    1
    17     4     5    1
    18     5     6    1
    19     6     7    1
    20     7    10    1
    21    10    11   ar
    22    11    12   ar
    23    12    13   ar
    24    13    14    1
    25    13    15   ar
    26    15    16   ar
    27     7     8    1
    28     8     9    1
    29    23    24   ar
    30    24    25    1
    31    31    27   ar
    32    24    20   ar
    33     9     2    1
    34     8     4    1
    35    16    10   ar
