@<TRIPOS>MOLECULE
*****
 34 37 0 0 0
SMALL
GASTEIGER

@<TRIPOS>ATOM
      1 C          62.3363   89.0342   10.7224 C.ar    1  UNL1        0.0054
      2 C          62.7577   90.2903   10.0192 C.ar    1  UNL1        0.0003
      3 C          63.6495   91.2759   10.7144 C.ar    1  UNL1        0.0027
      4 C          64.1199   91.0053   12.1127 C.ar    1  UNL1        0.0312
      5 C          65.0118   91.9909   12.8079 C.ar    1  UNL1        0.0556
      6 C          65.4822   91.7203   14.2063 C.ar    1  UNL1        0.0856
      7 C          65.0607   90.4641   14.9095 C.ar    1  UNL1        0.1045
      8 N          64.1689   89.4786   14.2143 N.ar    1  UNL1       -0.2436
      9 C          63.6985   89.7492   12.8159 C.ar    1  UNL1        0.0825
     10 C          62.8067   88.7636   12.1207 C.ar    1  UNL1        0.0193
     11 C          59.9953   89.7542    8.5656 C.3     1  UNL1        0.0556
     12 C          60.3685   88.3795    9.0359 C.ar    1  UNL1        0.1006
     13 N          59.7311   87.0945    8.5973 N.ar    1  UNL1       -0.0817
     14 O          60.4131   85.9693    9.3176 O.2     1  UNL1       -0.3581
     15 C          61.4721   86.5590   10.2013 C.ar    1  UNL1        0.1544
     16 C          62.3963   85.7934   11.1011 C.3     1  UNL1        0.0754
     17 C          61.4444   88.0486   10.0272 C.ar    1  UNL1        0.0497
     18 C          66.3740   92.7059   14.9015 C.2     1  UNL1        0.2455
     19 N          66.0991   93.0922   16.3247 N.am    1  UNL1       -0.3252
     20 O          67.5406   93.3051   14.1737 O.2     1  UNL1       -0.2703
     21 H          65.3334   92.6989   16.8024 H       1  UNL1        0.1453
     22 H          66.6845   93.7391   16.7810 H       1  UNL1        0.1453
     23 N          65.4332   93.2470   12.1047 N.pl3   1  UNL1       -0.3126
     24 H          64.9851   94.0995   12.3091 H       1  UNL1        0.1522
     25 C          66.5372   93.2043   11.0902 C.ar    1  UNL1        0.0442
     26 C          67.3830   91.9732   10.9536 C.ar    1  UNL1        0.0143
     27 C          68.4871   91.9304    9.9391 C.ar    1  UNL1        0.0013
     28 C          68.7453   93.1189    9.0611 C.ar    1  UNL1       -0.0002
     29 C          67.8994   94.3502    9.1977 C.ar    1  UNL1       -0.0031
     30 C          66.7954   94.3929   10.2122 C.ar    1  UNL1       -0.0094
     31 C          65.9495   95.6240   10.3488 C.3     1  UNL1        0.0201
     32 C          66.1789   95.6172   11.8311 C.3     1  UNL1        0.0044
     33 C          65.7201   95.6309    8.8665 C.3     1  UNL1        0.0044
     34 C          65.1036   96.8552   10.4854 C.3     1  UNL1        0.0044
@<TRIPOS>BOND
     1    11    12    1
     2    12    13   ar
     3    13    14   ar
     4    14    15   ar
     5    15    16    1
     6    15    17   ar
     7    17     1    1
     8     1     2   ar
     9     2     3   ar
    10     3     4   ar
    11     4     5   ar
    12     5    23    1
    13    23    25    1
    14    25    26   ar
    15    26    27   ar
    16    27    28   ar
    17    28    29   ar
    18    29    30   ar
    19    30    31    1
    20    31    32    1
    21    31    33    1
    22    31    34    1
    23     5     6   ar
    24     6    18    1
    25    18    19   am
    26    18    20    2
    27     6     7   ar
    28     7     8   ar
    29     8     9   ar
    30     9    10   ar
    31    17    12   ar
    32    10     1   ar
    33     9     4   ar
    34    30    25   ar
    35    23    24    1
    36    19    21    1
    37    19    22    1
@<TRIPOS>MOLECULE
*****
 34 37 0 0 0
SMALL
GASTEIGER

@<TRIPOS>ATOM
      1 C          65.7809   93.0640   11.0042 C.ar    1  UNL1        0.0054
      2 C          64.6915   92.2446   10.3783 C.ar    1  UNL1        0.0003
      3 C          63.8667   91.3214   11.2253 C.ar    1  UNL1        0.0027
      4 C          64.1312   91.2177   12.6982 C.ar    1  UNL1        0.0312
      5 C          63.3063   90.2945   13.5451 C.ar    1  UNL1        0.0556
      6 C          63.5708   90.1908   15.0180 C.ar    1  UNL1        0.0856
      7 C          64.6602   91.0104   15.6439 C.ar    1  UNL1        0.1045
      8 N          65.4851   91.9335   14.7969 N.ar    1  UNL1       -0.2436
      9 C          65.2206   92.0372   13.3240 C.ar    1  UNL1        0.0825
     10 C          66.0454   92.9603   12.4771 C.ar    1  UNL1        0.0193
     11 C          65.2932   96.2684   10.6246 C.3     1  UNL1        0.0556
     12 C          66.3816   95.4601    9.9828 C.ar    1  UNL1        0.1006
     13 N          67.4369   95.9828    9.0538 N.ar    1  UNL1       -0.0817
     14 O          68.3134   94.8329    8.6541 O.2     1  UNL1       -0.3581
     15 C          67.7997   93.5996    9.3361 C.ar    1  UNL1        0.1544
     16 C          68.3784   92.2208    9.2177 C.3     1  UNL1        0.0754
     17 C          66.6058   93.9873   10.1573 C.ar    1  UNL1        0.0497
     18 C          62.7460   89.2677   15.8649 C.2     1  UNL1        0.2455
     19 N          63.4027   88.1380   16.6015 N.am    1  UNL1       -0.3252
     20 O          61.2644   89.4742   15.9754 O.2     1  UNL1       -0.2703
     21 H          64.3752   88.0024   16.5290 H       1  UNL1        0.1453
     22 H          62.8613   87.5321   17.1574 H       1  UNL1        0.1453
     23 N          62.2170   89.4751   12.9192 N.pl3   1  UNL1       -0.3126
     24 H          61.3160   89.8563   12.8086 H       1  UNL1        0.1522
     25 C          62.5003   88.0748   12.4620 C.ar    1  UNL1        0.0442
     26 C          63.3595   87.1726   13.2971 C.ar    1  UNL1        0.0143
     27 C          63.6428   85.7723   12.8399 C.ar    1  UNL1        0.0013
     28 C          63.0669   85.2744   11.5475 C.ar    1  UNL1       -0.0002
     29 C          62.2076   86.1767   10.7123 C.ar    1  UNL1       -0.0031
     30 C          61.9242   87.5769   11.1695 C.ar    1  UNL1       -0.0094
     31 C          61.0650   88.4792   10.3344 C.3     1  UNL1        0.0201
     32 C          59.8550   88.0394   11.1041 C.3     1  UNL1        0.0044
     33 C          62.2749   88.9191    9.5647 C.3     1  UNL1        0.0044
     34 C          60.2057   89.3815    9.4993 C.3     1  UNL1        0.0044
@<TRIPOS>BOND
     1    11    12    1
     2    12    13   ar
     3    13    14   ar
     4    14    15   ar
     5    15    16    1
     6    15    17   ar
     7    17     1    1
     8     1     2   ar
     9     2     3   ar
    10     3     4   ar
    11     4     5   ar
    12     5    23    1
    13    23    25    1
    14    25    26   ar
    15    26    27   ar
    16    27    28   ar
    17    28    29   ar
    18    29    30   ar
    19    30    31    1
    20    31    32    1
    21    31    33    1
    22    31    34    1
    23     5     6   ar
    24     6    18    1
    25    18    19   am
    26    18    20    2
    27     6     7   ar
    28     7     8   ar
    29     8     9   ar
    30     9    10   ar
    31    17    12   ar
    32    10     1   ar
    33     9     4   ar
    34    30    25   ar
    35    23    24    1
    36    19    21    1
    37    19    22    1
@<TRIPOS>MOLECULE
*****
 34 37 0 0 0
SMALL
GASTEIGER

@<TRIPOS>ATOM
      1 C          61.7698   87.0634    9.8477 C.ar    1  UNL1        0.0054
      2 C          62.4706   86.1805   10.8373 C.ar    1  UNL1        0.0003
      3 C          63.1864   86.7866   12.0078 C.ar    1  UNL1        0.0027
      4 C          63.2014   88.2755   12.1889 C.ar    1  UNL1        0.0312
      5 C          63.9172   88.8816   13.3595 C.ar    1  UNL1        0.0556
      6 C          63.9322   90.3705   13.5405 C.ar    1  UNL1        0.0856
      7 C          63.2313   91.2535   12.5509 C.ar    1  UNL1        0.1045
      8 N          62.5155   90.6474   11.3803 N.ar    1  UNL1       -0.2436
      9 C          62.5006   89.1584   11.1993 C.ar    1  UNL1        0.0825
     10 C          61.7848   88.5524   10.0287 C.ar    1  UNL1        0.0193
     11 C          62.9791   84.8162    7.8136 C.3     1  UNL1        0.0556
     12 C          61.6098   85.4245    7.7421 C.ar    1  UNL1        0.1006
     13 N          60.5560   85.1066    6.7231 N.ar    1  UNL1       -0.0817
     14 O          59.3488   85.9431    7.0283 O.2     1  UNL1       -0.3581
     15 C          59.6566   86.7779    8.2359 C.ar    1  UNL1        0.1544
     16 C          58.7297   87.7607    8.8878 C.3     1  UNL1        0.0754
     17 C          61.0540   86.4574    8.6771 C.ar    1  UNL1        0.0497
     18 C          64.6480   90.9766   14.7111 C.2     1  UNL1        0.2455
     19 N          66.1468   91.0359   14.7250 N.am    1  UNL1       -0.3252
     20 O          63.8650   91.5234   15.8679 O.2     1  UNL1       -0.2703
     21 H          66.6607   90.6770   13.9658 H       1  UNL1        0.1453
     22 H          66.6166   91.4337   15.4933 H       1  UNL1        0.1453
     23 N          64.6181   87.9987   14.3491 N.pl3   1  UNL1       -0.3126
     24 H          65.5681   87.7739   14.2218 H       1  UNL1        0.1522
     25 C          63.8715   87.4582   15.5325 C.ar    1  UNL1        0.0442
     26 C          63.3031   88.3982   16.5539 C.ar    1  UNL1        0.0143
     27 C          62.5565   87.8577   17.7373 C.ar    1  UNL1        0.0013
     28 C          62.3783   86.3772   17.8993 C.ar    1  UNL1       -0.0002
     29 C          62.9466   85.4371   16.8778 C.ar    1  UNL1       -0.0031
     30 C          63.6932   85.9776   15.6944 C.ar    1  UNL1       -0.0094
     31 C          64.2615   85.0376   14.6730 C.3     1  UNL1        0.0201
     32 C          65.6355   85.5756   14.9424 C.3     1  UNL1        0.0044
     33 C          62.8875   84.4996   14.4036 C.3     1  UNL1        0.0044
     34 C          64.8299   84.0976   13.6516 C.3     1  UNL1        0.0044
@<TRIPOS>BOND
     1    11    12    1
     2    12    13   ar
     3    13    14   ar
     4    14    15   ar
     5    15    16    1
     6    15    17   ar
     7    17     1    1
     8     1     2   ar
     9     2     3   ar
    10     3     4   ar
    11     4     5   ar
    12     5    23    1
    13    23    25    1
    14    25    26   ar
    15    26    27   ar
    16    27    28   ar
    17    28    29   ar
    18    29    30   ar
    19    30    31    1
    20    31    32    1
    21    31    33    1
    22    31    34    1
    23     5     6   ar
    24     6    18    1
    25    18    19   am
    26    18    20    2
    27     6     7   ar
    28     7     8   ar
    29     8     9   ar
    30     9    10   ar
    31    17    12   ar
    32    10     1   ar
    33     9     4   ar
    34    30    25   ar
    35    23    24    1
    36    19    21    1
    37    19    22    1
@<TRIPOS>MOLECULE
*****
 34 37 0 0 0
SMALL
GASTEIGER

@<TRIPOS>ATOM
      1 C          64.0666   89.1322   13.8975 C.ar    1  UNL1        0.0054
      2 C          63.4125   89.0704   12.5490 C.ar    1  UNL1        0.0003
      3 C          63.0382   87.7439   11.9572 C.ar    1  UNL1        0.0027
      4 C          63.3180   86.4793   12.7138 C.ar    1  UNL1        0.0312
      5 C          62.9436   85.1528   12.1219 C.ar    1  UNL1        0.0556
      6 C          63.2234   83.8881   12.8785 C.ar    1  UNL1        0.0856
      7 C          63.8775   83.9500   14.2270 C.ar    1  UNL1        0.1045
      8 N          64.2518   85.2765   14.8188 N.ar    1  UNL1       -0.2436
      9 C          63.9720   86.5411   14.0622 C.ar    1  UNL1        0.0825
     10 C          64.3463   87.8676   14.6540 C.ar    1  UNL1        0.0193
     11 C          63.3007   90.1818   16.8911 C.3     1  UNL1        0.0556
     12 C          64.0888   90.9412   15.8653 C.ar    1  UNL1        0.1006
     13 N          64.6634   92.3163   16.0356 N.ar    1  UNL1       -0.0817
     14 O          65.3705   92.6838   14.7647 O.2     1  UNL1       -0.3581
     15 C          65.2330   91.5358   13.8092 C.ar    1  UNL1        0.1544
     16 C          65.7899   91.4753   12.4177 C.3     1  UNL1        0.0754
     17 C          64.4409   90.4588   14.4894 C.ar    1  UNL1        0.0497
     18 C          62.8491   82.5617   12.2866 C.2     1  UNL1        0.2455
     19 N          61.9941   81.6070   13.0662 N.am    1  UNL1       -0.3252
     20 O          63.3297   82.1898   10.9152 O.2     1  UNL1       -0.2703
     21 H          61.6787   81.8510   13.9663 H       1  UNL1        0.1453
     22 H          61.7485   80.7363   12.6777 H       1  UNL1        0.1453
     23 N          62.2895   85.0909   10.7735 N.pl3   1  UNL1       -0.3126
     24 H          62.4444   84.3160   10.1863 H       1  UNL1        0.1522
     25 C          61.3994   86.2098   10.3196 C.ar    1  UNL1        0.0442
     26 C          60.7164   87.0820   11.3308 C.ar    1  UNL1        0.0143
     27 C          59.8263   88.2009   10.8769 C.ar    1  UNL1        0.0013
     28 C          59.6193   88.4474    9.4119 C.ar    1  UNL1       -0.0002
     29 C          60.3023   87.5751    8.4006 C.ar    1  UNL1       -0.0031
     30 C          61.1924   86.4563    8.8545 C.ar    1  UNL1       -0.0094
     31 C          61.8755   85.5840    7.8433 C.3     1  UNL1        0.0201
     32 C          63.1996   85.8790    8.4833 C.3     1  UNL1        0.0044
     33 C          60.5514   85.2889    7.2034 C.3     1  UNL1        0.0044
     34 C          62.5586   84.7117    6.8322 C.3     1  UNL1        0.0044
@<TRIPOS>BOND
     1    11    12    1
     2    12    13   ar
     3    13    14   ar
     4    14    15   ar
     5    15    16    1
     6    15    17   ar
     7    17     1    1
     8     1     2   ar
     9     2     3   ar
    10     3     4   ar
    11     4     5   ar
    12     5    23    1
    13    23    25    1
    14    25    26   ar
    15    26    27   ar
    16    27    28   ar
    17    28    29   ar
    18    29    30   ar
    19    30    31    1
    20    31    32    1
    21    31    33    1
    22    31    34    1
    23     5     6   ar
    24     6    18    1
    25    18    19   am
    26    18    20    2
    27     6     7   ar
    28     7     8   ar
    29     8     9   ar
    30     9    10   ar
    31    17    12   ar
    32    10     1   ar
    33     9     4   ar
    34    30    25   ar
    35    23    24    1
    36    19    21    1
    37    19    22    1
@<TRIPOS>MOLECULE
*****
 34 37 0 0 0
SMALL
GASTEIGER

@<TRIPOS>ATOM
      1 C          64.7446   90.7175   13.3665 C.ar    1  UNL1        0.0054
      2 C          63.6995   90.3993   12.3387 C.ar    1  UNL1        0.0003
      3 C          63.1172   89.0190   12.2636 C.ar    1  UNL1        0.0027
      4 C          63.5800   87.9569   13.2164 C.ar    1  UNL1        0.0312
      5 C          62.9976   86.5766   13.1413 C.ar    1  UNL1        0.0556
      6 C          63.4604   85.5145   14.0941 C.ar    1  UNL1        0.0856
      7 C          64.5056   85.8327   15.1219 C.ar    1  UNL1        0.1045
      8 N          65.0879   87.2130   15.1969 N.ar    1  UNL1       -0.2436
      9 C          64.6251   88.2751   14.2442 C.ar    1  UNL1        0.0825
     10 C          65.2074   89.6554   14.3192 C.ar    1  UNL1        0.0193
     11 C          65.3450   92.6866   10.8342 C.3     1  UNL1        0.0556
     12 C          65.6030   93.0029   12.2776 C.ar    1  UNL1        0.1006
     13 N          66.1822   94.2798   12.8105 N.ar    1  UNL1       -0.0817
     14 O          66.2643   94.1639   14.3038 O.2     1  UNL1       -0.3581
     15 C          65.7358   92.8154   14.6938 C.ar    1  UNL1        0.1544
     16 C          65.6339   92.2787   16.0907 C.3     1  UNL1        0.0754
     17 C          65.3271   92.0978   13.4415 C.ar    1  UNL1        0.0497
     18 C          62.8780   84.1342   14.0190 C.2     1  UNL1        0.2455
     19 N          63.7162   82.9923   13.5253 N.am    1  UNL1       -0.3252
     20 O          61.4575   83.8957   14.4377 O.2     1  UNL1       -0.2703
     21 H          64.6485   83.1489   13.2506 H       1  UNL1        0.1453
     22 H          63.3340   82.0864   13.4761 H       1  UNL1        0.1453
     23 N          61.9524   86.2584   12.1135 N.pl3   1  UNL1       -0.3126
     24 H          61.0001   86.3990   12.3200 H       1  UNL1        0.1522
     25 C          62.3582   85.7261   10.7711 C.ar    1  UNL1        0.0442
     26 C          63.1826   84.4765   10.6778 C.ar    1  UNL1        0.0143
     27 C          63.5883   83.9442    9.3354 C.ar    1  UNL1        0.0013
     28 C          63.1696   84.6615    8.0863 C.ar    1  UNL1       -0.0002
     29 C          62.3452   85.9112    8.1797 C.ar    1  UNL1       -0.0031
     30 C          61.9394   86.4435    9.5221 C.ar    1  UNL1       -0.0094
     31 C          61.1150   87.6931    9.6154 C.3     1  UNL1        0.0201
     32 C          62.3670   88.5191    9.6156 C.3     1  UNL1        0.0044
     33 C          59.8630   86.8671    9.6152 C.3     1  UNL1        0.0044
     34 C          60.2906   88.9427    9.7088 C.3     1  UNL1        0.0044
@<TRIPOS>BOND
     1    11    12    1
     2    12    13   ar
     3    13    14   ar
     4    14    15   ar
     5    15    16    1
     6    15    17   ar
     7    17     1    1
     8     1     2   ar
     9     2     3   ar
    10     3     4   ar
    11     4     5   ar
    12     5    23    1
    13    23    25    1
    14    25    26   ar
    15    26    27   ar
    16    27    28   ar
    17    28    29   ar
    18    29    30   ar
    19    30    31    1
    20    31    32    1
    21    31    33    1
    22    31    34    1
    23     5     6   ar
    24     6    18    1
    25    18    19   am
    26    18    20    2
    27     6     7   ar
    28     7     8   ar
    29     8     9   ar
    30     9    10   ar
    31    17    12   ar
    32    10     1   ar
    33     9     4   ar
    34    30    25   ar
    35    23    24    1
    36    19    21    1
    37    19    22    1
@<TRIPOS>MOLECULE
*****
 34 37 0 0 0
SMALL
GASTEIGER

@<TRIPOS>ATOM
      1 C          62.6915   84.0846   11.9920 C.ar    1  UNL1        0.0054
      2 C          62.8395   84.9292   13.2228 C.ar    1  UNL1        0.0003
      3 C          62.6711   86.4171   13.1360 C.ar    1  UNL1        0.0027
      4 C          62.3547   87.0606   11.8185 C.ar    1  UNL1        0.0312
      5 C          62.1863   88.5486   11.7318 C.ar    1  UNL1        0.0556
      6 C          61.8699   89.1920   10.4142 C.ar    1  UNL1        0.0856
      7 C          61.7219   88.3474    9.1834 C.ar    1  UNL1        0.1045
      8 N          61.8903   86.8595    9.2702 N.ar    1  UNL1       -0.2436
      9 C          62.2067   86.2160   10.5877 C.ar    1  UNL1        0.0825
     10 C          62.3751   84.7281   10.6745 C.ar    1  UNL1        0.0193
     11 C          61.6013   82.1677   14.3976 C.3     1  UNL1        0.0556
     12 C          62.3588   81.7155   13.1845 C.ar    1  UNL1        0.1006
     13 N          62.7482   80.3028   12.8641 N.ar    1  UNL1       -0.0817
     14 O          63.4900   80.3108   11.5603 O.2     1  UNL1       -0.3581
     15 C          63.5590   81.7284   11.0750 C.ar    1  UNL1        0.1544
     16 C          64.2125   82.1958    9.8083 C.3     1  UNL1        0.0754
     17 C          62.8599   82.5966   12.0788 C.ar    1  UNL1        0.0497
     18 C          61.7015   90.6800   10.3275 C.2     1  UNL1        0.2455
     19 N          62.7225   91.5096    9.6066 N.am    1  UNL1       -0.3252
     20 O          60.5123   91.3384   10.9615 O.2     1  UNL1       -0.2703
     21 H          63.5030   91.0774    9.1904 H       1  UNL1        0.1453
     22 H          62.6119   92.4862    9.5496 H       1  UNL1        0.1453
     23 N          62.3343   89.3931   12.9625 N.pl3   1  UNL1       -0.3126
     24 H          61.5953   89.4530   13.6102 H       1  UNL1        0.1522
     25 C          63.6083   90.1464   13.2065 C.ar    1  UNL1        0.0442
     26 C          64.1246   91.1018   12.1718 C.ar    1  UNL1        0.0143
     27 C          65.3986   91.8551   12.4158 C.ar    1  UNL1        0.0013
     28 C          66.1563   91.6530   13.6945 C.ar    1  UNL1       -0.0002
     29 C          65.6400   90.6976   14.7293 C.ar    1  UNL1       -0.0031
     30 C          64.3660   89.9443   14.4853 C.ar    1  UNL1       -0.0094
     31 C          63.8497   88.9889   15.5200 C.3     1  UNL1        0.0201
     32 C          64.5374   87.8562   14.8173 C.3     1  UNL1        0.0044
     33 C          63.1619   90.1217   16.2227 C.3     1  UNL1        0.0044
     34 C          63.3334   88.0336   16.5547 C.3     1  UNL1        0.0044
@<TRIPOS>BOND
     1    11    12    1
     2    12    13   ar
     3    13    14   ar
     4    14    15   ar
     5    15    16    1
     6    15    17   ar
     7    17     1    1
     8     1     2   ar
     9     2     3   ar
    10     3     4   ar
    11     4     5   ar
    12     5    23    1
    13    23    25    1
    14    25    26   ar
    15    26    27   ar
    16    27    28   ar
    17    28    29   ar
    18    29    30   ar
    19    30    31    1
    20    31    32    1
    21    31    33    1
    22    31    34    1
    23     5     6   ar
    24     6    18    1
    25    18    19   am
    26    18    20    2
    27     6     7   ar
    28     7     8   ar
    29     8     9   ar
    30     9    10   ar
    31    17    12   ar
    32    10     1   ar
    33     9     4   ar
    34    30    25   ar
    35    23    24    1
    36    19    21    1
    37    19    22    1
@<TRIPOS>MOLECULE
*****
 34 37 0 0 0
SMALL
GASTEIGER

@<TRIPOS>ATOM
      1 C          62.7120   84.0979   12.0250 C.ar    1  UNL1        0.0054
      2 C          62.8555   84.9488   13.2519 C.ar    1  UNL1        0.0003
      3 C          62.6803   86.4355   13.1581 C.ar    1  UNL1        0.0027
      4 C          62.3615   87.0714   11.8375 C.ar    1  UNL1        0.0312
      5 C          62.1863   88.5583   11.7438 C.ar    1  UNL1        0.0556
      6 C          61.8676   89.1941   10.4232 C.ar    1  UNL1        0.0856
      7 C          61.7241   88.3432    9.1962 C.ar    1  UNL1        0.1045
      8 N          61.8993   86.8564    9.2900 N.ar    1  UNL1       -0.2436
      9 C          62.2180   86.2205   10.6106 C.ar    1  UNL1        0.0825
     10 C          62.3932   84.7338   10.7043 C.ar    1  UNL1        0.0193
     11 C          64.1916   82.1982    9.8223 C.3     1  UNL1        0.0556
     12 C          63.5673   81.7379   11.1062 C.ar    1  UNL1        0.1006
     13 N          63.5135   80.3236   11.6031 N.ar    1  UNL1       -0.0817
     14 O          62.8001   80.3227   12.9226 O.2     1  UNL1       -0.3581
     15 C          62.4130   81.7364   13.2412 C.ar    1  UNL1        0.1544
     16 C          61.6804   82.1950   14.4672 C.3     1  UNL1        0.0754
     17 C          62.8872   82.6111   12.1186 C.ar    1  UNL1        0.0497
     18 C          61.6924   90.6809   10.3295 C.2     1  UNL1        0.2455
     19 N          62.7252   91.5153    9.6316 N.am    1  UNL1       -0.3252
     20 O          60.4843   91.3333   10.9336 O.2     1  UNL1       -0.2703
     21 H          63.5181   91.0871    9.2351 H       1  UNL1        0.1453
     22 H          62.6102   92.4911    9.5701 H       1  UNL1        0.1453
     23 N          62.3298   89.4091   12.9707 N.pl3   1  UNL1       -0.3126
     24 H          61.5880   89.4733   13.6148 H       1  UNL1        0.1522
     25 C          63.6036   90.1622   13.2164 C.ar    1  UNL1        0.0442
     26 C          64.1145   91.1274   12.1881 C.ar    1  UNL1        0.0143
     27 C          65.3883   91.8805   12.4338 C.ar    1  UNL1        0.0013
     28 C          66.1512   91.6684   13.7077 C.ar    1  UNL1       -0.0002
     29 C          65.6403   90.7032   14.7361 C.ar    1  UNL1       -0.0031
     30 C          64.3665   89.9501   14.4904 C.ar    1  UNL1       -0.0094
     31 C          63.8556   88.9850   15.5187 C.3     1  UNL1        0.0201
     32 C          63.1697   90.1106   16.2345 C.3     1  UNL1        0.0044
     33 C          64.5415   87.8593   14.8030 C.3     1  UNL1        0.0044
     34 C          63.3447   88.0198   16.5470 C.3     1  UNL1        0.0044
@<TRIPOS>BOND
     1    11    12    1
     2    12    13   ar
     3    13    14   ar
     4    14    15   ar
     5    15    16    1
     6    15    17   ar
     7    17     1    1
     8     1     2   ar
     9     2     3   ar
    10     3     4   ar
    11     4     5   ar
    12     5    23    1
    13    23    25    1
    14    25    26   ar
    15    26    27   ar
    16    27    28   ar
    17    28    29   ar
    18    29    30   ar
    19    30    31    1
    20    31    32    1
    21    31    33    1
    22    31    34    1
    23     5     6   ar
    24     6    18    1
    25    18    19   am
    26    18    20    2
    27     6     7   ar
    28     7     8   ar
    29     8     9   ar
    30     9    10   ar
    31    17    12   ar
    32    10     1   ar
    33     9     4   ar
    34    30    25   ar
    35    23    24    1
    36    19    21    1
    37    19    22    1
