@<TRIPOS>MOLECULE
*****
 29 31 0 0 0
SMALL
GASTEIGER

@<TRIPOS>ATOM
      1 C          63.4968   90.7260   11.7539 C.ar    1  UNL1        0.1534
      2 C          62.4495   90.7739   10.6812 C.ar    1  UNL1        0.0351
      3 C          61.5573   89.5904   10.4506 C.ar    1  UNL1        0.0722
      4 CL         60.5099   89.6382    9.3778 Cl      1  UNL1       -0.0809
      5 C          61.7125   88.3588   11.2928 C.ar    1  UNL1        0.0577
      6 C          62.7598   88.3109   12.3655 C.ar    1  UNL1        0.0462
      7 C          63.6519   89.4945   12.5961 C.ar    1  UNL1        0.1602
      8 F          64.6993   89.4466   13.6689 F       1  UNL1       -0.2027
      9 O          63.9899   91.9287   13.4303 O.2     1  UNL1       -0.1498
     10 S          64.3890   91.9096   11.9845 S.O2    1  UNL1        0.0773
     11 O          64.7880   91.8906   10.5387 O.2     1  UNL1       -0.1498
     12 N          65.2811   93.0932   12.2151 N.pl3   1  UNL1       -0.1925
     13 H          65.1596   93.9124   11.6827 H       1  UNL1        0.1758
     14 C          66.3585   93.0287   13.2569 C.ar    1  UNL1        0.1977
     15 N          66.4635   93.9020   14.4719 N.ar    1  UNL1       -0.1997
     16 C          67.6898   93.4925   15.2324 C.ar    1  UNL1        0.2082
     17 N          68.3428   92.3661   14.4874 N.ar    1  UNL1       -0.1840
     18 S          67.5198   92.0794   13.2664 S.2     1  UNL1        0.0508
     19 N          60.8203   87.1752   11.0622 N.pl3   1  UNL1       -0.3319
     20 H          60.0911   86.9781   11.6936 H       1  UNL1        0.1468
     21 C          61.0392   86.2920    9.8698 C.3     1  UNL1        0.0884
     22 C          62.3928   85.6979    9.6148 C.3     1  UNL1        0.0369
     23 C          62.9276   84.6322   10.5248 C.3     1  UNL1        0.0557
     24 C          63.8228   83.5596    9.9788 C.3     1  UNL1        0.0158
     25 C          64.3576   82.4939   10.8888 C.3     1  UNL1        0.0028
     26 C          63.9972   82.5007   12.3449 C.3     1  UNL1        0.0171
     27 C          63.1020   83.5733   12.8909 C.3     1  UNL1        0.0685
     28 N          62.5672   84.6391   11.9808 N.3     1  UNL1       -0.2985
     29 H          62.8816   85.5332   12.3577 H       1  UNL1        0.1232
@<TRIPOS>BOND
     1     9    10    2
     2    10    11    2
     3    10    12    1
     4    12    14    1
     5    14    15   ar
     6    15    16   ar
     7    16    17   ar
     8    17    18   ar
     9    10     1    1
    10     1     2   ar
    11     2     3   ar
    12     3     4    1
    13     3     5   ar
    14     5    19    1
    15    19    21    1
    16    21    22    1
    17    22    23    1
    18    23    24    1
    19    24    25    1
    20    25    26    1
    21    26    27    1
    22    27    28    1
    23     5     6   ar
    24     6     7   ar
    25     7     8    1
    26    18    14   ar
    27     7     1   ar
    28    28    23    1
    29    12    13    1
    30    19    20    1
    31    28    29    1
@<TRIPOS>MOLECULE
*****
 29 31 0 0 0
SMALL
GASTEIGER

@<TRIPOS>ATOM
      1 C          64.6873   91.6511   11.9321 C.ar    1  UNL1        0.1534
      2 C          63.7255   91.5321   10.7873 C.ar    1  UNL1        0.0351
      3 C          62.7263   90.4137   10.7604 C.ar    1  UNL1        0.0722
      4 CL         61.7644   90.2947    9.6155 Cl      1  UNL1       -0.0809
      5 C          62.6889   89.4143   11.8783 C.ar    1  UNL1        0.0577
      6 C          63.6508   89.5333   13.0231 C.ar    1  UNL1        0.0462
      7 C          64.6499   90.6516   13.0500 C.ar    1  UNL1        0.1602
      8 F          65.6118   90.7707   14.1949 F       1  UNL1       -0.2027
      9 O          66.1040   92.4302   10.5589 O.2     1  UNL1       -0.1498
     10 S          65.6866   92.7695   11.9591 S.O2    1  UNL1        0.0773
     11 O          65.2691   93.1088   13.3593 O.2     1  UNL1       -0.1498
     12 N          66.6858   93.8879   11.9860 N.pl3   1  UNL1       -0.1925
     13 H          67.3102   93.9720   12.7425 H       1  UNL1        0.1758
     14 C          66.7337   94.8781   10.8602 C.ar    1  UNL1        0.1977
     15 N          67.7286   94.8895    9.7377 N.ar    1  UNL1       -0.1997
     16 C          67.4049   96.0492    8.8432 C.ar    1  UNL1        0.2082
     17 N          66.2099   96.7546    9.4128 N.ar    1  UNL1       -0.1840
     18 S          65.7950   96.0308   10.6595 S.2     1  UNL1        0.0508
     19 N          61.6897   88.2958   11.8513 N.pl3   1  UNL1       -0.3319
     20 H          60.9544   88.2768   12.5057 H       1  UNL1        0.1468
     21 C          61.8107   87.2065   10.8273 C.3     1  UNL1        0.0884
     22 C          61.6805   85.7705   11.2409 C.3     1  UNL1        0.0369
     23 C          62.6916   85.1621   12.1670 C.3     1  UNL1        0.0557
     24 C          63.2099   83.7787   11.9070 C.3     1  UNL1        0.0158
     25 C          64.2210   83.1703   12.8331 C.3     1  UNL1        0.0028
     26 C          64.7138   83.9453   14.0191 C.3     1  UNL1        0.0171
     27 C          64.1954   85.3287   14.2791 C.3     1  UNL1        0.0685
     28 N          63.1843   85.9371   13.3529 N.3     1  UNL1       -0.2985
     29 H          63.5959   86.7977   12.9919 H       1  UNL1        0.1232
@<TRIPOS>BOND
     1     9    10    2
     2    10    11    2
     3    10    12    1
     4    12    14    1
     5    14    15   ar
     6    15    16   ar
     7    16    17   ar
     8    17    18   ar
     9    10     1    1
    10     1     2   ar
    11     2     3   ar
    12     3     4    1
    13     3     5   ar
    14     5    19    1
    15    19    21    1
    16    21    22    1
    17    22    23    1
    18    23    24    1
    19    24    25    1
    20    25    26    1
    21    26    27    1
    22    27    28    1
    23     5     6   ar
    24     6     7   ar
    25     7     8    1
    26    18    14   ar
    27     7     1   ar
    28    28    23    1
    29    12    13    1
    30    19    20    1
    31    28    29    1
@<TRIPOS>MOLECULE
*****
 29 31 0 0 0
SMALL
GASTEIGER

@<TRIPOS>ATOM
      1 C          62.5906   89.7961   12.0989 C.ar    1  UNL1        0.1534
      2 C          62.9969   89.8085   13.5428 C.ar    1  UNL1        0.0351
      3 C          64.0433   90.7718   14.0192 C.ar    1  UNL1        0.0722
      4 CL         64.4497   90.7842   15.4631 Cl      1  UNL1       -0.0809
      5 C          64.6834   91.7227   13.0517 C.ar    1  UNL1        0.0577
      6 C          64.2771   91.7103   11.6079 C.ar    1  UNL1        0.0462
      7 C          63.2307   90.7470   11.1315 C.ar    1  UNL1        0.1602
      8 F          62.8244   90.7346    9.6876 F       1  UNL1       -0.2027
      9 O          62.6080   87.9982   10.9732 O.2     1  UNL1       -0.1498
     10 S          61.5441   88.8327   11.6225 S.O2    1  UNL1        0.0773
     11 O          60.4802   89.6673   12.2717 O.2     1  UNL1       -0.1498
     12 N          60.4977   87.8694   11.1460 N.pl3   1  UNL1       -0.1925
     13 H          60.0848   87.2385   11.7790 H       1  UNL1        0.1758
     14 C          60.0805   87.8674    9.7052 C.ar    1  UNL1        0.1977
     15 N          59.6311   86.6715    8.9191 N.ar    1  UNL1       -0.1997
     16 C          59.3123   87.1259    7.5256 C.ar    1  UNL1        0.2082
     17 N          59.5647   88.6027    7.4504 N.ar    1  UNL1       -0.1840
     18 S          60.0395   89.0609    8.7976 S.2     1  UNL1        0.0508
     19 N          65.7299   92.6861   13.5282 N.pl3   1  UNL1       -0.3319
     20 H          65.4782   93.6068   13.7692 H       1  UNL1        0.1468
     21 C          67.1599   92.2465   13.6374 C.3     1  UNL1        0.0884
     22 C          67.8992   91.7885   12.4152 C.3     1  UNL1        0.0369
     23 C          67.8308   92.5937   11.1516 C.3     1  UNL1        0.0557
     24 C          68.4459   92.0637    9.8903 C.3     1  UNL1        0.0158
     25 C          68.3775   92.8689    8.6266 C.3     1  UNL1        0.0028
     26 C          67.6940   94.2041    8.6242 C.3     1  UNL1        0.0171
     27 C          67.0788   94.7341    9.8854 C.3     1  UNL1        0.0685
     28 N          67.1472   93.9288   11.1491 N.3     1  UNL1       -0.2985
     29 H          66.1854   93.7678   11.4481 H       1  UNL1        0.1232
@<TRIPOS>BOND
     1     9    10    2
     2    10    11    2
     3    10    12    1
     4    12    14    1
     5    14    15   ar
     6    15    16   ar
     7    16    17   ar
     8    17    18   ar
     9    10     1    1
    10     1     2   ar
    11     2     3   ar
    12     3     4    1
    13     3     5   ar
    14     5    19    1
    15    19    21    1
    16    21    22    1
    17    22    23    1
    18    23    24    1
    19    24    25    1
    20    25    26    1
    21    26    27    1
    22    27    28    1
    23     5     6   ar
    24     6     7   ar
    25     7     8    1
    26    18    14   ar
    27     7     1   ar
    28    28    23    1
    29    12    13    1
    30    19    20    1
    31    28    29    1
@<TRIPOS>MOLECULE
*****
 29 31 0 0 0
SMALL
GASTEIGER

@<TRIPOS>ATOM
      1 C          63.9238   86.7593   14.0737 C.ar    1  UNL1        0.1534
      2 C          64.3104   87.9201   14.9415 C.ar    1  UNL1        0.0351
      3 C          64.0967   89.3232   14.4561 C.ar    1  UNL1        0.0722
      4 CL         64.4833   90.4840   15.3240 Cl      1  UNL1       -0.0809
      5 C          63.4965   89.5655   13.1030 C.ar    1  UNL1        0.0577
      6 C          63.1099   88.4047   12.2352 C.ar    1  UNL1        0.0462
      7 C          63.3236   87.0016   12.7205 C.ar    1  UNL1        0.1602
      8 F          62.9370   85.8408   11.8527 F       1  UNL1       -0.2027
      9 O          62.6532   85.1658   14.6619 O.2     1  UNL1       -0.1498
     10 S          64.1375   85.3561   14.5590 S.O2    1  UNL1        0.0773
     11 O          65.6217   85.5464   14.4560 O.2     1  UNL1       -0.1498
     12 N          64.3511   83.9530   15.0443 N.pl3   1  UNL1       -0.1925
     13 H          64.8552   83.7905   15.8742 H       1  UNL1        0.1758
     14 C          63.7965   82.7973   14.2652 C.ar    1  UNL1        0.1977
     15 N          62.8237   81.7758   14.7752 N.ar    1  UNL1       -0.1997
     16 C          62.5434   80.8074   13.6645 C.ar    1  UNL1        0.2082
     17 N          63.3431   81.2305   12.4679 N.ar    1  UNL1       -0.1840
     18 S          64.1175   82.4603   12.8392 S.2     1  UNL1        0.0508
     19 N          63.2829   90.9687   12.6177 N.pl3   1  UNL1       -0.3319
     20 H          62.5050   91.4847   12.9306 H       1  UNL1        0.1468
     21 C          64.2543   91.5856   11.6556 C.3     1  UNL1        0.0884
     22 C          65.3326   92.4983   12.1601 C.3     1  UNL1        0.0369
     23 C          66.0985   93.3576   11.1985 C.3     1  UNL1        0.0557
     24 C          67.1007   92.7361   10.2715 C.3     1  UNL1        0.0158
     25 C          67.8667   93.5955    9.3099 C.3     1  UNL1        0.0028
     26 C          67.6305   95.0764    9.2753 C.3     1  UNL1        0.0171
     27 C          66.6283   95.6979   10.2023 C.3     1  UNL1        0.0685
     28 N          65.8623   94.8385   11.1640 N.3     1  UNL1       -0.2985
     29 H          64.8729   94.9740   10.9563 H       1  UNL1        0.1232
@<TRIPOS>BOND
     1     9    10    2
     2    10    11    2
     3    10    12    1
     4    12    14    1
     5    14    15   ar
     6    15    16   ar
     7    16    17   ar
     8    17    18   ar
     9    10     1    1
    10     1     2   ar
    11     2     3   ar
    12     3     4    1
    13     3     5   ar
    14     5    19    1
    15    19    21    1
    16    21    22    1
    17    22    23    1
    18    23    24    1
    19    24    25    1
    20    25    26    1
    21    26    27    1
    22    27    28    1
    23     5     6   ar
    24     6     7   ar
    25     7     8    1
    26    18    14   ar
    27     7     1   ar
    28    28    23    1
    29    12    13    1
    30    19    20    1
    31    28    29    1
@<TRIPOS>MOLECULE
*****
 29 31 0 0 0
SMALL
GASTEIGER

@<TRIPOS>ATOM
      1 C          63.7652   86.5681   14.4178 C.ar    1  UNL1        0.1534
      2 C          63.8782   87.6094   15.4915 C.ar    1  UNL1        0.0351
      3 C          63.7644   89.0634   15.1410 C.ar    1  UNL1        0.0722
      4 CL         63.8774   90.1048   16.2147 Cl      1  UNL1       -0.0809
      5 C          63.5375   89.4761   13.7169 C.ar    1  UNL1        0.0577
      6 C          63.4245   88.4348   12.6432 C.ar    1  UNL1        0.0462
      7 C          63.5383   86.9808   12.9936 C.ar    1  UNL1        0.1602
      8 F          63.4253   85.9394   11.9199 F       1  UNL1       -0.2027
      9 O          62.3866   85.0266   14.8901 O.2     1  UNL1       -0.1498
     10 S          63.8791   85.1140   14.7682 S.O2    1  UNL1        0.0773
     11 O          65.3715   85.2015   14.6464 O.2     1  UNL1       -0.1498
     12 N          63.9929   83.6600   15.1186 N.pl3   1  UNL1       -0.1925
     13 H          64.4283   83.3888   15.9589 H       1  UNL1        0.1758
     14 C          63.4433   82.6191   14.1888 C.ar    1  UNL1        0.1977
     15 N          62.5005   81.5136   14.5612 N.ar    1  UNL1       -0.1997
     16 C          62.2145   80.7123   13.3258 C.ar    1  UNL1        0.2082
     17 N          62.9806   81.3227   12.1898 N.ar    1  UNL1       -0.1840
     18 S          63.7401   82.5013   12.7231 S.2     1  UNL1        0.0508
     19 N          63.4236   90.9302   13.3664 N.pl3   1  UNL1       -0.3319
     20 H          62.8704   91.5280   13.9195 H       1  UNL1        0.1468
     21 C          64.1526   91.4735   12.1734 C.3     1  UNL1        0.0884
     22 C          65.2493   92.4799   12.3588 C.3     1  UNL1        0.0369
     23 C          66.1041   92.4393   13.5907 C.3     1  UNL1        0.0557
     24 C          67.5470   92.0419   13.4896 C.3     1  UNL1        0.0158
     25 C          68.4018   92.0013   14.7215 C.3     1  UNL1        0.0028
     26 C          67.8137   92.3581   16.0546 C.3     1  UNL1        0.0171
     27 C          66.3708   92.7555   16.1557 C.3     1  UNL1        0.0685
     28 N          65.5160   92.7961   14.9237 N.3     1  UNL1       -0.2985
     29 H          65.1605   93.7487   14.8432 H       1  UNL1        0.1232
@<TRIPOS>BOND
     1     9    10    2
     2    10    11    2
     3    10    12    1
     4    12    14    1
     5    14    15   ar
     6    15    16   ar
     7    16    17   ar
     8    17    18   ar
     9    10     1    1
    10     1     2   ar
    11     2     3   ar
    12     3     4    1
    13     3     5   ar
    14     5    19    1
    15    19    21    1
    16    21    22    1
    17    22    23    1
    18    23    24    1
    19    24    25    1
    20    25    26    1
    21    26    27    1
    22    27    28    1
    23     5     6   ar
    24     6     7   ar
    25     7     8    1
    26    18    14   ar
    27     7     1   ar
    28    28    23    1
    29    12    13    1
    30    19    20    1
    31    28    29    1
@<TRIPOS>MOLECULE
*****
 29 31 0 0 0
SMALL
GASTEIGER

@<TRIPOS>ATOM
      1 C          64.7534   91.5851   12.0248 C.ar    1  UNL1        0.1534
      2 C          64.8121   90.5831   13.1395 C.ar    1  UNL1        0.0351
      3 C          63.8732   89.4133   13.1465 C.ar    1  UNL1        0.0722
      4 CL         63.9319   88.4112   14.2613 Cl      1  UNL1       -0.0809
      5 C          62.8757   89.2454   12.0389 C.ar    1  UNL1        0.0577
      6 C          62.8170   90.2474   10.9242 C.ar    1  UNL1        0.0462
      7 C          63.7559   91.4172   10.9172 C.ar    1  UNL1        0.1602
      8 F          63.6972   92.4193    9.8025 F       1  UNL1       -0.2027
      9 O          66.1445   92.3836   10.6366 O.2     1  UNL1       -0.1498
     10 S          65.6922   92.7550   12.0177 S.O2    1  UNL1        0.0773
     11 O          65.2400   93.1263   13.3988 O.2     1  UNL1       -0.1498
     12 N          66.6310   93.9248   12.0105 N.pl3   1  UNL1       -0.1925
     13 H          67.2233   94.0854   12.7804 H       1  UNL1        0.1758
     14 C          66.6675   94.8500   10.8304 C.ar    1  UNL1        0.1977
     15 N          67.7385   94.8991    9.7813 N.ar    1  UNL1       -0.1997
     16 C          67.3723   95.9680    8.7947 C.ar    1  UNL1        0.2082
     17 N          66.0749   96.5795    9.2340 N.ar    1  UNL1       -0.1840
     18 S          65.6393   95.8885   10.4922 S.2     1  UNL1        0.0508
     19 N          61.9369   88.0756   12.0460 N.pl3   1  UNL1       -0.3319
     20 H          61.7527   87.5973   12.8866 H       1  UNL1        0.1468
     21 C          61.2787   87.6344   10.7724 C.3     1  UNL1        0.0884
     22 C          61.9848   86.6811    9.8544 C.3     1  UNL1        0.0369
     23 C          62.5541   85.4027   10.3943 C.3     1  UNL1        0.0557
     24 C          63.3681   84.5098    9.5054 C.3     1  UNL1        0.0158
     25 C          63.9375   83.2314   10.0453 C.3     1  UNL1        0.0028
     26 C          63.6928   82.8458   11.4742 C.3     1  UNL1        0.0171
     27 C          62.8788   83.7387   12.3630 C.3     1  UNL1        0.0685
     28 N          62.3094   85.0172   11.8231 N.3     1  UNL1       -0.2985
     29 H          62.6816   85.7719   12.3995 H       1  UNL1        0.1232
@<TRIPOS>BOND
     1     9    10    2
     2    10    11    2
     3    10    12    1
     4    12    14    1
     5    14    15   ar
     6    15    16   ar
     7    16    17   ar
     8    17    18   ar
     9    10     1    1
    10     1     2   ar
    11     2     3   ar
    12     3     4    1
    13     3     5   ar
    14     5    19    1
    15    19    21    1
    16    21    22    1
    17    22    23    1
    18    23    24    1
    19    24    25    1
    20    25    26    1
    21    26    27    1
    22    27    28    1
    23     5     6   ar
    24     6     7   ar
    25     7     8    1
    26    18    14   ar
    27     7     1   ar
    28    28    23    1
    29    12    13    1
    30    19    20    1
    31    28    29    1
@<TRIPOS>MOLECULE
*****
 29 31 0 0 0
SMALL
GASTEIGER

@<TRIPOS>ATOM
      1 C          63.6211   85.9103   13.6977 C.ar    1  UNL1        0.1534
      2 C          64.1589   87.0851   14.4597 C.ar    1  UNL1        0.0351
      3 C          64.0385   88.4674   13.8898 C.ar    1  UNL1        0.0722
      4 CL         64.5763   89.6423   14.6517 Cl      1  UNL1       -0.0809
      5 C          63.3804   88.6748   12.5579 C.ar    1  UNL1        0.0577
      6 C          62.8427   87.5000   11.7959 C.ar    1  UNL1        0.0462
      7 C          62.9630   86.1178   12.3658 C.ar    1  UNL1        0.1602
      8 F          62.4252   84.9429   11.6039 F       1  UNL1       -0.2027
      9 O          62.2913   84.5593   14.6497 O.2     1  UNL1       -0.1498
     10 S          63.7415   84.5280   14.2676 S.O2    1  UNL1        0.0773
     11 O          65.1916   84.4966   13.8855 O.2     1  UNL1       -0.1498
     12 N          63.8618   83.1457   14.8375 N.pl3   1  UNL1       -0.1925
     13 H          64.3171   83.0064   15.6992 H       1  UNL1        0.1758
     14 C          63.2883   81.9756   14.0944 C.ar    1  UNL1        0.1977
     15 N          62.2797   81.0014   14.6270 N.ar    1  UNL1       -0.1997
     16 C          61.9908   79.9980   13.5501 C.ar    1  UNL1        0.2082
     17 N          62.8210   80.3520   12.3519 N.ar    1  UNL1       -0.1840
     18 S          63.6229   81.5743   12.6884 S.2     1  UNL1        0.0508
     19 N          63.2601   90.0572   11.9880 N.pl3   1  UNL1       -0.3319
     20 H          63.5639   90.8336   12.5115 H       1  UNL1        0.1468
     21 C          62.6769   90.2565   10.6205 C.3     1  UNL1        0.0884
     22 C          61.1884   90.2700   10.4346 C.3     1  UNL1        0.0369
     23 C          60.5403   89.2908    9.5013 C.3     1  UNL1        0.0557
     24 C          60.4036   87.8515    9.9009 C.3     1  UNL1        0.0158
     25 C          59.7555   86.8723    8.9676 C.3     1  UNL1        0.0028
     26 C          59.2440   87.3324    7.6346 C.3     1  UNL1        0.0171
     27 C          59.3807   88.7717    7.2350 C.3     1  UNL1        0.0685
     28 N          60.0289   89.7509    8.1684 N.3     1  UNL1       -0.2985
     29 H          59.3412   90.4812    8.3530 H       1  UNL1        0.1232
@<TRIPOS>BOND
     1     9    10    2
     2    10    11    2
     3    10    12    1
     4    12    14    1
     5    14    15   ar
     6    15    16   ar
     7    16    17   ar
     8    17    18   ar
     9    10     1    1
    10     1     2   ar
    11     2     3   ar
    12     3     4    1
    13     3     5   ar
    14     5    19    1
    15    19    21    1
    16    21    22    1
    17    22    23    1
    18    23    24    1
    19    24    25    1
    20    25    26    1
    21    26    27    1
    22    27    28    1
    23     5     6   ar
    24     6     7   ar
    25     7     8    1
    26    18    14   ar
    27     7     1   ar
    28    28    23    1
    29    12    13    1
    30    19    20    1
    31    28    29    1
@<TRIPOS>MOLECULE
*****
 29 31 0 0 0
SMALL
GASTEIGER

@<TRIPOS>ATOM
      1 C          64.8551   91.6501   12.1423 C.ar    1  UNL1        0.1534
      2 C          64.9333   90.6772   13.2812 C.ar    1  UNL1        0.0351
      3 C          64.0249   89.4840   13.3120 C.ar    1  UNL1        0.0722
      4 CL         64.1031   88.5110   14.4510 Cl      1  UNL1       -0.0809
      5 C          63.0383   89.2637   12.2039 C.ar    1  UNL1        0.0577
      6 C          62.9601   90.2366   11.0649 C.ar    1  UNL1        0.0462
      7 C          63.8685   91.4298   11.0341 C.ar    1  UNL1        0.1602
      8 F          63.7903   92.4028    9.8951 F       1  UNL1       -0.2027
      9 O          66.1560   92.5081   10.7031 O.2     1  UNL1       -0.1498
     10 S          65.7635   92.8434   12.1114 S.O2    1  UNL1        0.0773
     11 O          65.3710   93.1787   13.5198 O.2     1  UNL1       -0.1498
     12 N          66.6719   94.0366   12.0806 N.pl3   1  UNL1       -0.1925
     13 H          67.2396   94.2433   12.8579 H       1  UNL1        0.1758
     14 C          66.7154   94.9149   10.8653 C.ar    1  UNL1        0.1977
     15 N          67.7246   94.8389    9.7582 N.ar    1  UNL1       -0.1997
     16 C          67.3902   95.9004    8.7525 C.ar    1  UNL1        0.2082
     17 N          66.1743   96.6325    9.2381 N.ar    1  UNL1       -0.1840
     18 S          65.7573   96.0234   10.5439 S.2     1  UNL1        0.0508
     19 N          62.1298   88.0704   12.2347 N.pl3   1  UNL1       -0.3319
     20 H          61.3022   88.0954   12.7673 H       1  UNL1        0.1468
     21 C          62.4823   86.8391   11.4540 C.3     1  UNL1        0.0884
     22 C          61.4395   86.1557   10.6200 C.3     1  UNL1        0.0369
     23 C          60.7191   86.9176    9.5474 C.3     1  UNL1        0.0557
     24 C          60.0586   86.1819    8.4195 C.3     1  UNL1        0.0158
     25 C          59.3382   86.9439    7.3469 C.3     1  UNL1        0.0028
     26 C          59.2783   88.4417    7.4023 C.3     1  UNL1        0.0171
     27 C          59.9389   89.1775    8.5303 C.3     1  UNL1        0.0685
     28 N          60.6593   88.4154    9.6029 N.3     1  UNL1       -0.2985
     29 H          60.2140   88.6597   10.4874 H       1  UNL1        0.1232
@<TRIPOS>BOND
     1     9    10    2
     2    10    11    2
     3    10    12    1
     4    12    14    1
     5    14    15   ar
     6    15    16   ar
     7    16    17   ar
     8    17    18   ar
     9    10     1    1
    10     1     2   ar
    11     2     3   ar
    12     3     4    1
    13     3     5   ar
    14     5    19    1
    15    19    21    1
    16    21    22    1
    17    22    23    1
    18    23    24    1
    19    24    25    1
    20    25    26    1
    21    26    27    1
    22    27    28    1
    23     5     6   ar
    24     6     7   ar
    25     7     8    1
    26    18    14   ar
    27     7     1   ar
    28    28    23    1
    29    12    13    1
    30    19    20    1
    31    28    29    1
@<TRIPOS>MOLECULE
*****
 29 31 0 0 0
SMALL
GASTEIGER

@<TRIPOS>ATOM
      1 C          63.3123   85.3435   15.2397 C.ar    1  UNL1        0.1534
      2 C          63.0656   86.1142   16.5027 C.ar    1  UNL1        0.0351
      3 C          63.3335   87.5894   16.5455 C.ar    1  UNL1        0.0722
      4 CL         63.0868   88.3601   17.8085 Cl      1  UNL1       -0.0809
      5 C          63.8480   88.2940   15.3253 C.ar    1  UNL1        0.0577
      6 C          64.0947   87.5233   14.0624 C.ar    1  UNL1        0.0462
      7 C          63.8269   86.0481   14.0196 C.ar    1  UNL1        0.1602
      8 F          64.0736   85.2773   12.7565 F       1  UNL1       -0.2027
      9 O          64.5000   83.5970   15.4370 O.2     1  UNL1       -0.1498
     10 S          63.0445   83.8682   15.1969 S.O2    1  UNL1        0.0773
     11 O          61.5889   84.1394   14.9567 O.2     1  UNL1       -0.1498
     12 N          62.7767   82.3929   15.1540 N.pl3   1  UNL1       -0.1925
     13 H          62.5809   81.9038   15.9857 H       1  UNL1        0.1758
     14 C          62.8073   81.6628   13.8440 C.ar    1  UNL1        0.1977
     15 N          63.2876   82.2183   12.5361 N.ar    1  UNL1       -0.1997
     16 C          63.1400   81.1478   11.4957 C.ar    1  UNL1        0.2082
     17 N          62.5685   79.9307   12.1607 N.ar    1  UNL1       -0.1840
     18 S          62.3628   80.2491   13.6121 S.2     1  UNL1        0.0508
     19 N          64.1159   89.7693   15.3682 N.pl3   1  UNL1       -0.3319
     20 H          63.6284   90.3398   16.0055 H       1  UNL1        0.1468
     21 C          65.1265   90.3753   14.4402 C.3     1  UNL1        0.0884
     22 C          64.6933   91.3748   13.4089 C.3     1  UNL1        0.0369
     23 C          63.6433   91.0072   12.4028 C.3     1  UNL1        0.0557
     24 C          63.8350   91.3571   10.9568 C.3     1  UNL1        0.0158
     25 C          62.7850   90.9895    9.9506 C.3     1  UNL1        0.0028
     26 C          61.5433   90.2720   10.3905 C.3     1  UNL1        0.0171
     27 C          61.3516   89.9221   11.8365 C.3     1  UNL1        0.0685
     28 N          62.4017   90.2897   12.8426 N.3     1  UNL1       -0.2985
     29 H          62.7041   89.4210   13.2834 H       1  UNL1        0.1232
@<TRIPOS>BOND
     1     9    10    2
     2    10    11    2
     3    10    12    1
     4    12    14    1
     5    14    15   ar
     6    15    16   ar
     7    16    17   ar
     8    17    18   ar
     9    10     1    1
    10     1     2   ar
    11     2     3   ar
    12     3     4    1
    13     3     5   ar
    14     5    19    1
    15    19    21    1
    16    21    22    1
    17    22    23    1
    18    23    24    1
    19    24    25    1
    20    25    26    1
    21    26    27    1
    22    27    28    1
    23     5     6   ar
    24     6     7   ar
    25     7     8    1
    26    18    14   ar
    27     7     1   ar
    28    28    23    1
    29    12    13    1
    30    19    20    1
    31    28    29    1
