@<TRIPOS>MOLECULE
*****
 33 37 0 0 0
SMALL
GASTEIGER

@<TRIPOS>ATOM
      1 C          63.0429   86.3476   12.7431 C.2     1  UNL1        0.2506
      2 O          63.6659   87.1566   13.8420 O.2     1  UNL1       -0.2699
      3 N          62.4125   87.0368   11.5694 N.am    1  UNL1       -0.2723
      4 C          61.7895   86.2277   10.4706 C.3     1  UNL1        0.1257
      5 C          61.1591   86.9169    9.2968 C.3     1  UNL1        0.1637
      6 O          61.1517   88.4151    9.2219 O.3     1  UNL1       -0.3502
      7 C          61.7747   89.2240   10.3207 C.3     1  UNL1        0.1622
      8 C          62.4051   88.5348   11.4945 C.3     1  UNL1        0.1096
      9 C          63.3137   81.7253   10.3849 C.3     1  UNL1        0.0307
     10 C          63.1857   82.5384   11.6390 C.ar    1  UNL1       -0.0255
     11 C          63.1783   84.0365   11.5640 C.ar    1  UNL1        0.0015
     12 C          63.0503   84.8495   12.8180 C.ar    1  UNL1        0.0726
     13 C          62.9296   84.1644   14.1470 C.ar    1  UNL1        0.1069
     14 C          62.9370   82.6663   14.2219 C.ar    1  UNL1        0.0165
     15 C          63.0650   81.8533   12.9679 C.ar    1  UNL1       -0.0242
     16 C          63.0724   80.3551   13.0428 C.3     1  UNL1        0.0307
     17 N          62.8016   84.9775   15.4011 N.ar    1  UNL1       -0.1477
     18 N          61.5207   85.3226   16.1012 N.ar    1  UNL1       -0.1447
     19 C          61.8594   86.1465   17.3079 C.ar    1  UNL1        0.1446
     20 C          63.3497   86.3107   17.3536 C.ar    1  UNL1        0.1446
     21 N          63.9320   85.5882   16.1751 N.ar    1  UNL1       -0.1447
     22 C          63.0281   89.3439   12.5933 C.3     1  UNL1        0.0488
     23 C          63.9178   90.5042   12.2585 C.ar    1  UNL1       -0.0189
     24 C          63.7549   91.2213   10.9511 C.ar    1  UNL1       -0.0041
     25 C          64.6446   92.3816   10.6163 C.ar    1  UNL1        0.0013
     26 C          65.6972   92.8248   11.5888 C.ar    1  UNL1        0.0209
     27 C          65.8601   92.1076   12.8961 C.ar    1  UNL1        0.1026
     28 C          64.9703   90.9473   13.2310 C.ar    1  UNL1        0.0167
     29 N          66.9126   92.5507   13.8686 N.ar    1  UNL1       -0.1478
     30 N          66.6996   93.4524   15.0483 N.ar    1  UNL1       -0.1447
     31 C          68.0183   93.6290   15.7409 C.ar    1  UNL1        0.1446
     32 C          69.0464   92.8363   14.9893 C.ar    1  UNL1        0.1446
     33 N          68.3630   92.1700   13.8322 N.ar    1  UNL1       -0.1447
@<TRIPOS>BOND
     1     9    10    1
     2    10    11   ar
     3    11    12   ar
     4    12     1    1
     5     1     2    2
     6     1     3   am
     7     3     4    1
     8     4     5    1
     9     5     6    1
    10     6     7    1
    11     7     8    1
    12     8    22    1
    13    22    23    1
    14    23    24   ar
    15    24    25   ar
    16    25    26   ar
    17    26    27   ar
    18    27    29    1
    19    29    30   ar
    20    30    31   ar
    21    31    32   ar
    22    32    33   ar
    23    27    28   ar
    24    12    13   ar
    25    13    17    1
    26    17    18   ar
    27    18    19   ar
    28    19    20   ar
    29    20    21   ar
    30    13    14   ar
    31    14    15   ar
    32    15    16    1
    33    15    10   ar
    34     8     3    1
    35    28    23   ar
    36    21    17   ar
    37    33    29   ar
@<TRIPOS>MOLECULE
*****
 33 37 0 0 0
SMALL
GASTEIGER

@<TRIPOS>ATOM
      1 C          62.7023   88.5537   11.6058 C.2     1  UNL1        0.2506
      2 O          62.6809   90.0532   11.5788 O.2     1  UNL1       -0.2699
      3 N          63.3455   87.8333   12.7536 N.am    1  UNL1       -0.2723
      4 C          63.3668   86.3337   12.7806 C.3     1  UNL1        0.1257
      5 C          64.0100   85.6133   13.9284 C.3     1  UNL1        0.1637
      6 O          64.6319   86.3927   15.0492 O.3     1  UNL1       -0.3502
      7 C          64.6105   87.8922   15.0221 C.3     1  UNL1        0.1622
      8 C          63.9673   88.6126   13.8743 C.3     1  UNL1        0.1096
      9 C          63.0951   84.9970    7.8380 C.3     1  UNL1        0.0307
     10 C          62.2768   85.9961    8.6012 C.ar    1  UNL1       -0.0255
     11 C          62.8987   86.7753    9.7219 C.ar    1  UNL1        0.0015
     12 C          62.0805   87.7743   10.4851 C.ar    1  UNL1        0.0726
     13 C          60.6404   87.9941   10.1275 C.ar    1  UNL1        0.1069
     14 C          60.0185   87.2148    9.0068 C.ar    1  UNL1        0.0165
     15 C          60.8367   86.2158    8.2437 C.ar    1  UNL1       -0.0242
     16 C          60.2149   85.4365    7.1229 C.3     1  UNL1        0.0307
     17 N          59.8221   88.9931   10.8907 N.ar    1  UNL1       -0.1477
     18 N          59.0695   88.7299   12.1613 N.ar    1  UNL1       -0.1447
     19 C          58.3951   90.0048   12.5732 C.ar    1  UNL1        0.1446
     20 C          58.7309   91.0561   11.5572 C.ar    1  UNL1        0.1446
     21 N          59.6129   90.4308   10.5174 N.ar    1  UNL1       -0.1447
     22 C          63.9460   90.1122   13.8473 C.3     1  UNL1        0.0488
     23 C          65.2328   90.8794   13.7726 C.ar    1  UNL1       -0.0189
     24 C          66.1774   90.8748   14.9378 C.ar    1  UNL1       -0.0041
     25 C          67.4642   91.6420   14.8630 C.ar    1  UNL1        0.0013
     26 C          67.8064   92.4137   13.6231 C.ar    1  UNL1        0.0209
     27 C          66.8617   92.4183   12.4579 C.ar    1  UNL1        0.1026
     28 C          65.5749   91.6511   12.5327 C.ar    1  UNL1        0.0167
     29 N          67.2039   93.1900   11.2181 N.ar    1  UNL1       -0.1478
     30 N          67.9200   92.6526   10.0145 N.ar    1  UNL1       -0.1447
     31 C          68.0486   93.7651    9.0166 C.ar    1  UNL1        0.1446
     32 C          67.4120   94.9901    9.6035 C.ar    1  UNL1        0.1446
     33 N          66.8899   94.6346   10.9640 N.ar    1  UNL1       -0.1447
@<TRIPOS>BOND
     1     9    10    1
     2    10    11   ar
     3    11    12   ar
     4    12     1    1
     5     1     2    2
     6     1     3   am
     7     3     4    1
     8     4     5    1
     9     5     6    1
    10     6     7    1
    11     7     8    1
    12     8    22    1
    13    22    23    1
    14    23    24   ar
    15    24    25   ar
    16    25    26   ar
    17    26    27   ar
    18    27    29    1
    19    29    30   ar
    20    30    31   ar
    21    31    32   ar
    22    32    33   ar
    23    27    28   ar
    24    12    13   ar
    25    13    17    1
    26    17    18   ar
    27    18    19   ar
    28    19    20   ar
    29    20    21   ar
    30    13    14   ar
    31    14    15   ar
    32    15    16    1
    33    15    10   ar
    34     8     3    1
    35    28    23   ar
    36    21    17   ar
    37    33    29   ar
@<TRIPOS>MOLECULE
*****
 33 37 0 0 0
SMALL
GASTEIGER

@<TRIPOS>ATOM
      1 C          63.3471   87.0215   13.1411 C.2     1  UNL1        0.2506
      2 O          63.8713   87.6354   14.4053 O.2     1  UNL1       -0.2699
      3 N          62.8386   87.8990   12.0359 N.am    1  UNL1       -0.2723
      4 C          62.3144   87.2850   10.7716 C.3     1  UNL1        0.1257
      5 C          61.8059   88.1625    9.6665 C.3     1  UNL1        0.1637
      6 O          61.8215   89.6540    9.8256 O.3     1  UNL1       -0.3502
      7 C          62.3457   90.2679   11.0898 C.3     1  UNL1        0.1622
      8 C          62.8542   89.3904   12.1949 C.3     1  UNL1        0.1096
      9 C          63.7584   82.8135   10.1205 C.3     1  UNL1        0.0307
     10 C          63.5371   83.4261   11.4717 C.ar    1  UNL1       -0.0255
     11 C          63.5528   84.9175   11.6308 C.ar    1  UNL1        0.0015
     12 C          63.3315   85.5300   12.9820 C.ar    1  UNL1        0.0726
     13 C          63.0945   84.6510   14.1742 C.ar    1  UNL1        0.1069
     14 C          63.0788   83.1596   14.0151 C.ar    1  UNL1        0.0165
     15 C          63.3001   82.5471   12.6639 C.ar    1  UNL1       -0.0242
     16 C          63.2845   81.0556   12.5048 C.3     1  UNL1        0.0307
     17 N          62.8731   85.2636   15.5254 N.ar    1  UNL1       -0.1477
     18 N          61.5430   85.5286   16.1662 N.ar    1  UNL1       -0.1447
     19 C          61.7908   86.1475   17.5099 C.ar    1  UNL1        0.1446
     20 C          63.2742   86.2649   17.6996 C.ar    1  UNL1        0.1446
     21 N          63.9431   85.7187   16.4732 N.ar    1  UNL1       -0.1447
     22 C          63.3784   90.0044   13.4592 C.3     1  UNL1        0.0488
     23 C          64.6455   90.8068   13.4340 C.ar    1  UNL1       -0.0189
     24 C          65.6346   90.6820   14.5548 C.ar    1  UNL1       -0.0041
     25 C          66.9017   91.4844   14.5296 C.ar    1  UNL1        0.0013
     26 C          67.1797   92.4116   13.3836 C.ar    1  UNL1        0.0209
     27 C          66.1906   92.5364   12.2629 C.ar    1  UNL1        0.1026
     28 C          64.9234   91.7339   12.2881 C.ar    1  UNL1        0.0167
     29 N          66.4685   93.4635   11.1170 N.ar    1  UNL1       -0.1478
     30 N          67.5607   93.3066   10.1009 N.ar    1  UNL1       -0.1447
     31 C          67.4703   94.4565    9.1419 C.ar    1  UNL1        0.1446
     32 C          66.3221   95.3240    9.5653 C.ar    1  UNL1        0.1446
     33 N          65.7030   94.7103   10.7860 N.ar    1  UNL1       -0.1447
@<TRIPOS>BOND
     1     9    10    1
     2    10    11   ar
     3    11    12   ar
     4    12     1    1
     5     1     2    2
     6     1     3   am
     7     3     4    1
     8     4     5    1
     9     5     6    1
    10     6     7    1
    11     7     8    1
    12     8    22    1
    13    22    23    1
    14    23    24   ar
    15    24    25   ar
    16    25    26   ar
    17    26    27   ar
    18    27    29    1
    19    29    30   ar
    20    30    31   ar
    21    31    32   ar
    22    32    33   ar
    23    27    28   ar
    24    12    13   ar
    25    13    17    1
    26    17    18   ar
    27    18    19   ar
    28    19    20   ar
    29    20    21   ar
    30    13    14   ar
    31    14    15   ar
    32    15    16    1
    33    15    10   ar
    34     8     3    1
    35    28    23   ar
    36    21    17   ar
    37    33    29   ar
@<TRIPOS>MOLECULE
*****
 33 37 0 0 0
SMALL
GASTEIGER

@<TRIPOS>ATOM
      1 C          63.4460   87.9035   13.2830 C.2     1  UNL1        0.2506
      2 O          63.6598   88.9679   12.2480 O.2     1  UNL1       -0.2699
      3 N          63.3719   88.2732   14.7348 N.am    1  UNL1       -0.2723
      4 C          63.1581   87.2088   15.7699 C.3     1  UNL1        0.1257
      5 C          63.0840   87.5785   17.2217 C.3     1  UNL1        0.1637
      6 O          63.2237   89.0127   17.6385 O.3     1  UNL1       -0.3502
      7 C          63.4375   90.0771   16.6035 C.3     1  UNL1        0.1622
      8 C          63.5116   89.7073   15.1516 C.3     1  UNL1        0.1096
      9 C          64.6635   82.8925   13.9219 C.3     1  UNL1        0.0307
     10 C          63.9150   83.9639   13.1856 C.ar    1  UNL1       -0.0255
     11 C          64.0547   85.3980   13.6024 C.ar    1  UNL1        0.0015
     12 C          63.3063   86.4693   12.8662 C.ar    1  UNL1        0.0726
     13 C          62.4181   86.1065   11.7132 C.ar    1  UNL1        0.1069
     14 C          62.2784   84.6724   11.2964 C.ar    1  UNL1        0.0165
     15 C          63.0268   83.6011   12.0326 C.ar    1  UNL1       -0.0242
     16 C          62.8871   82.1669   11.6158 C.3     1  UNL1        0.0307
     17 N          61.6696   87.1779   10.9769 N.ar    1  UNL1       -0.1477
     18 N          62.0106   87.7178    9.6196 N.ar    1  UNL1       -0.1447
     19 C          61.0006   88.7711    9.2725 C.ar    1  UNL1        0.1446
     20 C          60.0353   88.8820   10.4154 C.ar    1  UNL1        0.1446
     21 N          60.4488   87.8974   11.4687 N.ar    1  UNL1       -0.1447
     22 C          63.7254   90.7718   14.1166 C.3     1  UNL1        0.0488
     23 C          65.0971   91.3363   13.8935 C.ar    1  UNL1       -0.0189
     24 C          66.1806   91.0950   14.9023 C.ar    1  UNL1       -0.0041
     25 C          67.5523   91.6594   14.6792 C.ar    1  UNL1        0.0013
     26 C          67.8406   92.4652   13.4472 C.ar    1  UNL1        0.0209
     27 C          66.7570   92.7064   12.4384 C.ar    1  UNL1        0.1026
     28 C          65.3853   92.1420   12.6615 C.ar    1  UNL1        0.0167
     29 N          67.0452   93.5121   11.2064 N.ar    1  UNL1       -0.1478
     30 N          67.7131   93.0100    9.9607 N.ar    1  UNL1       -0.1447
     31 C          67.7968   94.1489    8.9882 C.ar    1  UNL1        0.1446
     32 C          67.1806   95.3551    9.6329 C.ar    1  UNL1        0.1446
     33 N          66.7161   94.9615   11.0038 N.ar    1  UNL1       -0.1447
@<TRIPOS>BOND
     1     9    10    1
     2    10    11   ar
     3    11    12   ar
     4    12     1    1
     5     1     2    2
     6     1     3   am
     7     3     4    1
     8     4     5    1
     9     5     6    1
    10     6     7    1
    11     7     8    1
    12     8    22    1
    13    22    23    1
    14    23    24   ar
    15    24    25   ar
    16    25    26   ar
    17    26    27   ar
    18    27    29    1
    19    29    30   ar
    20    30    31   ar
    21    31    32   ar
    22    32    33   ar
    23    27    28   ar
    24    12    13   ar
    25    13    17    1
    26    17    18   ar
    27    18    19   ar
    28    19    20   ar
    29    20    21   ar
    30    13    14   ar
    31    14    15   ar
    32    15    16    1
    33    15    10   ar
    34     8     3    1
    35    28    23   ar
    36    21    17   ar
    37    33    29   ar
@<TRIPOS>MOLECULE
*****
 33 37 0 0 0
SMALL
GASTEIGER

@<TRIPOS>ATOM
      1 C          62.8666   88.9682   12.0158 C.2     1  UNL1        0.2506
      2 O          62.9322   87.7085   12.8276 O.2     1  UNL1       -0.2699
      3 N          61.9042   89.0728   10.8701 N.am    1  UNL1       -0.2723
      4 C          61.8386   90.3325   10.0583 C.3     1  UNL1        0.1257
      5 C          60.8761   90.4372    8.9126 C.3     1  UNL1        0.1637
      6 O          59.9792   89.2821    8.5786 O.3     1  UNL1       -0.3502
      7 C          60.0448   88.0225    9.3904 C.3     1  UNL1        0.1622
      8 C          61.0073   87.9178   10.5361 C.3     1  UNL1        0.1096
      9 C          65.4577   93.2255   10.5455 C.3     1  UNL1        0.0307
     10 C          65.0590   92.2518   11.6147 C.ar    1  UNL1       -0.0255
     11 C          64.1621   91.0968   11.2806 C.ar    1  UNL1        0.0015
     12 C          63.7635   90.1233   12.3498 C.ar    1  UNL1        0.0726
     13 C          64.2617   90.3047   13.7530 C.ar    1  UNL1        0.1069
     14 C          65.1585   91.4597   14.0870 C.ar    1  UNL1        0.0165
     15 C          65.5572   92.4333   13.0178 C.ar    1  UNL1       -0.0242
     16 C          66.4541   93.5883   13.3518 C.3     1  UNL1        0.0307
     17 N          63.8630   89.3310   14.8222 N.ar    1  UNL1       -0.1477
     18 N          62.8995   89.5957   15.9409 N.ar    1  UNL1       -0.1447
     19 C          62.7988   88.3501   16.7705 C.ar    1  UNL1        0.1446
     20 C          63.7001   87.3155   16.1644 C.ar    1  UNL1        0.1446
     21 N          64.3578   87.9217   14.9603 N.ar    1  UNL1       -0.1447
     22 C          61.0729   86.6581   11.3479 C.3     1  UNL1        0.0488
     23 C          61.9543   85.5271   10.9075 C.ar    1  UNL1       -0.0189
     24 C          62.6520   85.5926    9.5813 C.ar    1  UNL1       -0.0041
     25 C          63.5334   84.4616    9.1409 C.ar    1  UNL1        0.0013
     26 C          63.7171   83.2651   10.0267 C.ar    1  UNL1        0.0209
     27 C          63.0193   83.1996   11.3529 C.ar    1  UNL1        0.1026
     28 C          62.1379   84.3307   11.7933 C.ar    1  UNL1        0.0167
     29 N          63.2030   82.0032   12.2388 N.ar    1  UNL1       -0.1478
     30 N          62.4776   80.6959   12.1165 N.ar    1  UNL1       -0.1447
     31 C          62.9705   79.7887   13.2046 C.ar    1  UNL1        0.1446
     32 C          64.0007   80.5353   13.9993 C.ar    1  UNL1        0.1446
     33 N          64.1443   81.9038   13.4024 N.ar    1  UNL1       -0.1447
@<TRIPOS>BOND
     1     9    10    1
     2    10    11   ar
     3    11    12   ar
     4    12     1    1
     5     1     2    2
     6     1     3   am
     7     3     4    1
     8     4     5    1
     9     5     6    1
    10     6     7    1
    11     7     8    1
    12     8    22    1
    13    22    23    1
    14    23    24   ar
    15    24    25   ar
    16    25    26   ar
    17    26    27   ar
    18    27    29    1
    19    29    30   ar
    20    30    31   ar
    21    31    32   ar
    22    32    33   ar
    23    27    28   ar
    24    12    13   ar
    25    13    17    1
    26    17    18   ar
    27    18    19   ar
    28    19    20   ar
    29    20    21   ar
    30    13    14   ar
    31    14    15   ar
    32    15    16    1
    33    15    10   ar
    34     8     3    1
    35    28    23   ar
    36    21    17   ar
    37    33    29   ar
@<TRIPOS>MOLECULE
*****
 33 37 0 0 0
SMALL
GASTEIGER

@<TRIPOS>ATOM
      1 C          62.7891   88.2883   11.1011 C.2     1  UNL1        0.2506
      2 O          63.0991   89.7427   10.9047 O.2     1  UNL1       -0.2699
      3 N          63.2266   87.5907   12.3548 N.am    1  UNL1       -0.2723
      4 C          62.9166   86.1362   12.5511 C.3     1  UNL1        0.1257
      5 C          63.3541   85.4387   13.8049 C.3     1  UNL1        0.1637
      6 O          64.1017   86.1956   14.8624 O.3     1  UNL1       -0.3502
      7 C          64.4118   87.6500   14.6661 C.3     1  UNL1        0.1622
      8 C          63.9742   88.3476   13.4123 C.3     1  UNL1        0.1096
      9 C          62.7383   84.7983    7.2517 C.3     1  UNL1        0.0307
     10 C          62.0161   85.7864    8.1189 C.ar    1  UNL1       -0.0255
     11 C          62.7637   86.5433    9.1764 C.ar    1  UNL1        0.0015
     12 C          62.0415   87.5314   10.0435 C.ar    1  UNL1        0.0726
     13 C          60.5717   87.7626    9.8533 C.ar    1  UNL1        0.1069
     14 C          59.8241   87.0057    8.7959 C.ar    1  UNL1        0.0165
     15 C          60.5463   86.0176    7.9287 C.ar    1  UNL1       -0.0242
     16 C          59.7987   85.2607    6.8712 C.3     1  UNL1        0.0307
     17 N          59.8495   88.7507   10.7206 N.ar    1  UNL1       -0.1477
     18 N          59.1704   88.4492   12.0236 N.ar    1  UNL1       -0.1447
     19 C          58.5808   89.7259   12.5455 C.ar    1  UNL1        0.1446
     20 C          58.8955   90.8165   11.5648 C.ar    1  UNL1        0.1446
     21 N          59.6795   90.2138   10.4370 N.ar    1  UNL1       -0.1447
     22 C          64.2842   89.8020   13.2160 C.3     1  UNL1        0.0488
     23 C          64.6543   90.6554   14.3928 C.ar    1  UNL1       -0.0189
     24 C          63.6953   90.8143   15.5352 C.ar    1  UNL1       -0.0041
     25 C          64.0654   91.6677   16.7119 C.ar    1  UNL1        0.0013
     26 C          65.3945   92.3623   16.7462 C.ar    1  UNL1        0.0209
     27 C          66.3535   92.2035   15.6038 C.ar    1  UNL1        0.1026
     28 C          65.9833   91.3500   14.4270 C.ar    1  UNL1        0.0167
     29 N          67.6825   92.8980   15.6381 N.ar    1  UNL1       -0.1478
     30 N          68.0322   94.0915   16.4767 N.ar    1  UNL1       -0.1447
     31 C          69.4610   94.4522   16.1967 C.ar    1  UNL1        0.1446
     32 C          69.9943   93.4815   15.1850 C.ar    1  UNL1        0.1446
     33 N          68.8951   92.5211   14.8397 N.ar    1  UNL1       -0.1447
@<TRIPOS>BOND
     1     9    10    1
     2    10    11   ar
     3    11    12   ar
     4    12     1    1
     5     1     2    2
     6     1     3   am
     7     3     4    1
     8     4     5    1
     9     5     6    1
    10     6     7    1
    11     7     8    1
    12     8    22    1
    13    22    23    1
    14    23    24   ar
    15    24    25   ar
    16    25    26   ar
    17    26    27   ar
    18    27    29    1
    19    29    30   ar
    20    30    31   ar
    21    31    32   ar
    22    32    33   ar
    23    27    28   ar
    24    12    13   ar
    25    13    17    1
    26    17    18   ar
    27    18    19   ar
    28    19    20   ar
    29    20    21   ar
    30    13    14   ar
    31    14    15   ar
    32    15    16    1
    33    15    10   ar
    34     8     3    1
    35    28    23   ar
    36    21    17   ar
    37    33    29   ar
@<TRIPOS>MOLECULE
*****
 33 37 0 0 0
SMALL
GASTEIGER

@<TRIPOS>ATOM
      1 C          63.2555   87.5773   12.8284 C.2     1  UNL1        0.2506
      2 O          63.2248   88.3470   11.5414 O.2     1  UNL1       -0.2699
      3 N          63.2822   88.3074   14.1385 N.am    1  UNL1       -0.2723
      4 C          63.3129   87.5377   15.4256 C.3     1  UNL1        0.1257
      5 C          63.3395   88.2678   16.7357 C.3     1  UNL1        0.1637
      6 O          63.3355   89.7677   16.7586 O.3     1  UNL1       -0.3502
      7 C          63.3048   90.5373   15.4715 C.3     1  UNL1        0.1622
      8 C          63.2781   89.8072   14.1615 C.3     1  UNL1        0.1096
      9 C          64.7961   83.0498   14.8602 C.3     1  UNL1        0.0307
     10 C          64.0298   83.8138   13.8214 C.ar    1  UNL1       -0.0255
     11 C          64.0258   85.3136   13.8443 C.ar    1  UNL1        0.0015
     12 C          63.2595   86.0775   12.8055 C.ar    1  UNL1        0.0726
     13 C          62.4973   85.3416   11.7437 C.ar    1  UNL1        0.1069
     14 C          62.5013   83.8418   11.7207 C.ar    1  UNL1        0.0165
     15 C          63.2675   83.0779   12.7596 C.ar    1  UNL1       -0.0242
     16 C          63.2716   81.5780   12.7366 C.3     1  UNL1        0.0307
     17 N          61.7310   86.1056   10.7048 N.ar    1  UNL1       -0.1477
     18 N          62.0099   86.1123    9.2310 N.ar    1  UNL1       -0.1447
     19 C          61.0026   87.0078    8.5727 C.ar    1  UNL1        0.1446
     20 C          60.1011   87.5545    9.6397 C.ar    1  UNL1        0.1446
     21 N          60.5513   86.9969   10.9574 N.ar    1  UNL1       -0.1447
     22 C          63.2475   90.5770   12.8743 C.3     1  UNL1        0.0488
     23 C          64.4114   91.4412   12.4894 C.ar    1  UNL1       -0.0189
     24 C          64.5206   91.9731   11.0911 C.ar    1  UNL1       -0.0041
     25 C          65.6846   92.8374   10.7062 C.ar    1  UNL1        0.0013
     26 C          66.7394   93.1698   11.7195 C.ar    1  UNL1        0.0209
     27 C          66.6303   92.6379   13.1178 C.ar    1  UNL1        0.1026
     28 C          65.4662   91.7736   13.5027 C.ar    1  UNL1        0.0167
     29 N          67.6851   92.9703   14.1312 N.ar    1  UNL1       -0.1478
     30 N          69.0943   92.4565   14.1378 N.ar    1  UNL1       -0.1447
     31 C          69.7961   93.0435   15.3266 C.ar    1  UNL1        0.1446
     32 C          68.8204   93.9200   16.0546 C.ar    1  UNL1        0.1446
     33 N          67.5158   93.8747   15.3157 N.ar    1  UNL1       -0.1447
@<TRIPOS>BOND
     1     9    10    1
     2    10    11   ar
     3    11    12   ar
     4    12     1    1
     5     1     2    2
     6     1     3   am
     7     3     4    1
     8     4     5    1
     9     5     6    1
    10     6     7    1
    11     7     8    1
    12     8    22    1
    13    22    23    1
    14    23    24   ar
    15    24    25   ar
    16    25    26   ar
    17    26    27   ar
    18    27    29    1
    19    29    30   ar
    20    30    31   ar
    21    31    32   ar
    22    32    33   ar
    23    27    28   ar
    24    12    13   ar
    25    13    17    1
    26    17    18   ar
    27    18    19   ar
    28    19    20   ar
    29    20    21   ar
    30    13    14   ar
    31    14    15   ar
    32    15    16    1
    33    15    10   ar
    34     8     3    1
    35    28    23   ar
    36    21    17   ar
    37    33    29   ar
@<TRIPOS>MOLECULE
*****
 33 37 0 0 0
SMALL
GASTEIGER

@<TRIPOS>ATOM
      1 C          62.3737   87.9154   11.1064 C.2     1  UNL1        0.2506
      2 O          63.4831   88.5621   10.3312 O.2     1  UNL1       -0.2699
      3 N          61.1265   88.6884   11.4176 N.am    1  UNL1       -0.2723
      4 C          60.0171   88.0416   12.1929 C.3     1  UNL1        0.1257
      5 C          58.7698   88.8145   12.5041 C.3     1  UNL1        0.1637
      6 O          58.6320   90.2343   12.0400 O.3     1  UNL1       -0.3502
      7 C          59.7413   90.8811   11.2648 C.3     1  UNL1        0.1622
      8 C          60.9886   90.1081   10.9536 C.3     1  UNL1        0.1096
      9 C          63.9201   84.4811   14.6861 C.3     1  UNL1        0.0307
     10 C          63.2847   84.7785   13.3603 C.ar    1  UNL1       -0.0255
     11 C          63.1469   86.1982   12.8963 C.ar    1  UNL1        0.0015
     12 C          62.5116   86.4956   11.5705 C.ar    1  UNL1        0.0726
     13 C          62.0140   85.3732   10.7086 C.ar    1  UNL1        0.1069
     14 C          62.1519   83.9535   11.1726 C.ar    1  UNL1        0.0165
     15 C          62.7872   83.6561   12.4984 C.ar    1  UNL1       -0.0242
     16 C          62.9250   82.2363   12.9625 C.3     1  UNL1        0.0307
     17 N          61.3787   85.6706    9.3827 N.ar    1  UNL1       -0.1477
     18 N          60.0743   86.3801    9.1694 N.ar    1  UNL1       -0.1447
     19 C          59.8256   86.4588    7.6923 C.ar    1  UNL1        0.1446
     20 C          60.9762   85.7979    6.9927 C.ar    1  UNL1        0.1446
     21 N          61.9360   85.3108    8.0374 N.ar    1  UNL1       -0.1447
     22 C          62.0980   90.7549   10.1783 C.3     1  UNL1        0.0488
     23 C          63.2613   91.3660   10.9017 C.ar    1  UNL1       -0.0189
     24 C          63.5148   91.0223   12.3396 C.ar    1  UNL1       -0.0041
     25 C          64.6781   91.6334   13.0629 C.ar    1  UNL1        0.0013
     26 C          65.5879   92.5883   12.3484 C.ar    1  UNL1        0.0209
     27 C          65.3344   92.9320   10.9105 C.ar    1  UNL1        0.1026
     28 C          64.1710   92.3208   10.1871 C.ar    1  UNL1        0.0167
     29 N          66.2441   93.8868   10.1959 N.ar    1  UNL1       -0.1478
     30 N          67.3871   93.5121    9.2996 N.ar    1  UNL1       -0.1447
     31 C          68.0200   94.7777    8.8019 C.ar    1  UNL1        0.1446
     32 C          67.2682   95.9345    9.3906 C.ar    1  UNL1        0.1446
     33 N          66.1706   95.3839   10.2521 N.ar    1  UNL1       -0.1447
@<TRIPOS>BOND
     1     9    10    1
     2    10    11   ar
     3    11    12   ar
     4    12     1    1
     5     1     2    2
     6     1     3   am
     7     3     4    1
     8     4     5    1
     9     5     6    1
    10     6     7    1
    11     7     8    1
    12     8    22    1
    13    22    23    1
    14    23    24   ar
    15    24    25   ar
    16    25    26   ar
    17    26    27   ar
    18    27    29    1
    19    29    30   ar
    20    30    31   ar
    21    31    32   ar
    22    32    33   ar
    23    27    28   ar
    24    12    13   ar
    25    13    17    1
    26    17    18   ar
    27    18    19   ar
    28    19    20   ar
    29    20    21   ar
    30    13    14   ar
    31    14    15   ar
    32    15    16    1
    33    15    10   ar
    34     8     3    1
    35    28    23   ar
    36    21    17   ar
    37    33    29   ar
