@<TRIPOS>MOLECULE
*****
 19 20 0 0 0
SMALL
GASTEIGER

@<TRIPOS>ATOM
      1 C          63.2071   88.7350   12.2932 C.2     1  UNL1        0.0033
      2 C          62.8510   90.0653   12.8877 C.2     1  UNL1        0.0435
      3 C          60.6434   86.9625    9.0473 C.ar    1  UNL1        0.0140
      4 C          60.8084   88.4502    9.1443 C.ar    1  UNL1        0.0011
      5 C          61.6630   89.0410   10.2263 C.ar    1  UNL1        0.0000
      6 C          62.3525   88.1442   11.2112 C.ar    1  UNL1        0.0001
      7 C          62.1875   86.6565   11.1142 C.ar    1  UNL1        0.0000
      8 C          61.3330   86.0656   10.0322 C.ar    1  UNL1        0.0011
      9 O          60.3503   85.3176    7.0577 O.co2   1  UNL1       -0.5446
     10 C          59.7889   86.3716    7.9653 C.2     1  UNL1        0.0729
     11 O          58.3729   86.8348    7.7910 O.co2   1  UNL1       -0.5446
     12 C          63.7056   90.6561   13.9697 C.2     1  UNL1        0.2111
     13 O          63.2709   90.5652   15.4024 O.2     1  UNL1       -0.2850
     14 C          64.9949   91.3379   13.6188 C.ar    1  UNL1        0.0961
     15 C          66.2841   91.2304   14.3781 C.ar    1  UNL1        0.0218
     16 C          67.3073   92.0729   13.6757 C.ar    1  UNL1        0.0200
     17 C          66.6504   92.7011   12.4824 C.ar    1  UNL1        0.0725
     18 N          65.2213   92.2468   12.4472 N.ar    1  UNL1       -0.3495
     19 H          64.5498   92.5006   11.7735 H       1  UNL1        0.1661
@<TRIPOS>UNITY_ATOM_ATTR
9 1
charge -1
@<TRIPOS>BOND
     1     9    10   ar
     2    10    11   ar
     3    10     3    1
     4     3     4   ar
     5     4     5   ar
     6     5     6   ar
     7     6     1    1
     8     1     2    2
     9     2    12    1
    10    12    13    2
    11    12    14    1
    12    14    15   ar
    13    15    16   ar
    14    16    17   ar
    15    17    18   ar
    16     6     7   ar
    17     7     8   ar
    18     8     3   ar
    19    18    14   ar
    20    18    19    1
@<TRIPOS>MOLECULE
*****
 19 20 0 0 0
SMALL
GASTEIGER

@<TRIPOS>ATOM
      1 C          64.2155   91.4782   12.4400 C.2     1  UNL1        0.0033
      2 C          65.1810   92.3429   11.6852 C.2     1  UNL1        0.0435
      3 C          61.7030   88.4612   10.2411 C.ar    1  UNL1        0.0140
      4 C          61.8408   89.8555    9.7054 C.ar    1  UNL1        0.0011
      5 C          62.6783   90.8611   10.4384 C.ar    1  UNL1        0.0000
      6 C          63.3780   90.4725   11.7070 C.ar    1  UNL1        0.0001
      7 C          63.2401   89.0783   12.2427 C.ar    1  UNL1        0.0000
      8 C          62.4026   88.0726   11.5097 C.ar    1  UNL1        0.0011
      9 O          59.8921   87.9104    8.4614 O.co2   1  UNL1       -0.5446
     10 C          60.8654   87.4556    9.5081 C.2     1  UNL1        0.0729
     11 O          61.0013   85.9951    9.8218 O.co2   1  UNL1       -0.5446
     12 C          66.0185   93.3486   12.4182 C.2     1  UNL1        0.2111
     13 O          66.1975   94.7277   11.8562 O.2     1  UNL1       -0.2850
     14 C          66.6770   92.9750   13.7131 C.ar    1  UNL1        0.0961
     15 C          67.6991   91.8935   13.9027 C.ar    1  UNL1        0.0218
     16 C          68.0828   91.8674   15.3526 C.ar    1  UNL1        0.0200
     17 C          67.2980   92.9327   16.0590 C.ar    1  UNL1        0.0725
     18 N          66.4292   93.6172   15.0458 N.ar    1  UNL1       -0.3495
     19 H          65.8057   94.3580   15.2241 H       1  UNL1        0.1661
@<TRIPOS>UNITY_ATOM_ATTR
9 1
charge -1
@<TRIPOS>BOND
     1     9    10   ar
     2    10    11   ar
     3    10     3    1
     4     3     4   ar
     5     4     5   ar
     6     5     6   ar
     7     6     1    1
     8     1     2    2
     9     2    12    1
    10    12    13    2
    11    12    14    1
    12    14    15   ar
    13    15    16   ar
    14    16    17   ar
    15    17    18   ar
    16     6     7   ar
    17     7     8   ar
    18     8     3   ar
    19    18    14   ar
    20    18    19    1
@<TRIPOS>MOLECULE
*****
 19 20 0 0 0
SMALL
GASTEIGER

@<TRIPOS>ATOM
      1 C          62.5244   89.0683   12.3558 C.2     1  UNL1        0.0033
      2 C          62.4957   88.4311   10.9981 C.2     1  UNL1        0.0435
      3 C          65.7504   92.0329   13.3823 C.ar    1  UNL1        0.0140
      4 C          64.9786   92.1769   12.1043 C.ar    1  UNL1        0.0011
      5 C          63.9032   91.1887   11.7621 C.ar    1  UNL1        0.0000
      6 C          63.5997   90.0565   12.6979 C.ar    1  UNL1        0.0001
      7 C          64.3716   89.9124   13.9760 C.ar    1  UNL1        0.0000
      8 C          65.4470   90.9006   14.3182 C.ar    1  UNL1        0.0011
      9 O          66.4800   94.4671   13.9226 O.co2   1  UNL1       -0.5446
     10 C          66.8258   93.0211   13.7245 C.2     1  UNL1        0.0729
     11 O          68.2469   92.5632   13.8686 O.co2   1  UNL1       -0.5446
     12 C          61.4204   87.4429   10.6559 C.2     1  UNL1        0.2111
     13 O          61.1649   86.2708   11.5563 O.2     1  UNL1       -0.2850
     14 C          60.6005   87.6270    9.4133 C.ar    1  UNL1        0.0961
     15 C          60.0119   86.5311    8.5751 C.ar    1  UNL1        0.0218
     16 C          59.2729   87.1659    7.4345 C.ar    1  UNL1        0.0200
     17 C          59.4049   88.6542    7.5679 C.ar    1  UNL1        0.0725
     18 N          60.2254   88.9391    8.7908 N.ar    1  UNL1       -0.3495
     19 H          60.4740   89.8307    9.1260 H       1  UNL1        0.1661
@<TRIPOS>UNITY_ATOM_ATTR
9 1
charge -1
@<TRIPOS>BOND
     1     9    10   ar
     2    10    11   ar
     3    10     3    1
     4     3     4   ar
     5     4     5   ar
     6     5     6   ar
     7     6     1    1
     8     1     2    2
     9     2    12    1
    10    12    13    2
    11    12    14    1
    12    14    15   ar
    13    15    16   ar
    14    16    17   ar
    15    17    18   ar
    16     6     7   ar
    17     7     8   ar
    18     8     3   ar
    19    18    14   ar
    20    18    19    1
@<TRIPOS>MOLECULE
*****
 19 20 0 0 0
SMALL
GASTEIGER

@<TRIPOS>ATOM
      1 C          63.1033   91.0372   11.1287 C.2     1  UNL1        0.0033
      2 C          62.0959   89.9977   11.5220 C.2     1  UNL1        0.0435
      3 C          66.4647   92.0864   13.9305 C.ar    1  UNL1        0.0140
      4 C          66.3805   92.7391   12.5826 C.ar    1  UNL1        0.0011
      5 C          65.2600   92.3894   11.6487 C.ar    1  UNL1        0.0000
      6 C          64.2238   91.3870   12.0627 C.ar    1  UNL1        0.0001
      7 C          64.3081   90.7343   13.4106 C.ar    1  UNL1        0.0000
      8 C          65.4285   91.0840   14.3445 C.ar    1  UNL1        0.0011
      9 O          68.9755   92.6199   14.3322 O.co2   1  UNL1       -0.5446
     10 C          67.5852   92.4362   14.8644 C.2     1  UNL1        0.0729
     11 O          67.3154   92.6022   16.3305 O.co2   1  UNL1       -0.5446
     12 C          60.9755   89.6480   10.5881 C.2     1  UNL1        0.2111
     13 O          59.8383   90.6057   10.3891 O.2     1  UNL1       -0.2850
     14 C          60.9922   88.3404    9.8531 C.ar    1  UNL1        0.0961
     15 C          62.1842   87.4494    9.6660 C.ar    1  UNL1        0.0218
     16 C          61.7486   86.2527    8.8735 C.ar    1  UNL1        0.0200
     17 C          60.2873   86.4042    8.5707 C.ar    1  UNL1        0.0725
     18 N          59.8198   87.6945    9.1761 N.ar    1  UNL1       -0.3495
     19 H          58.9043   88.0542    9.1362 H       1  UNL1        0.1661
@<TRIPOS>UNITY_ATOM_ATTR
9 1
charge -1
@<TRIPOS>BOND
     1     9    10   ar
     2    10    11   ar
     3    10     3    1
     4     3     4   ar
     5     4     5   ar
     6     5     6   ar
     7     6     1    1
     8     1     2    2
     9     2    12    1
    10    12    13    2
    11    12    14    1
    12    14    15   ar
    13    15    16   ar
    14    16    17   ar
    15    17    18   ar
    16     6     7   ar
    17     7     8   ar
    18     8     3   ar
    19    18    14   ar
    20    18    19    1
@<TRIPOS>MOLECULE
*****
 19 20 0 0 0
SMALL
GASTEIGER

@<TRIPOS>ATOM
      1 C          63.7482   85.6278   15.4739 C.2     1  UNL1        0.0033
      2 C          63.6453   84.9487   14.1405 C.2     1  UNL1        0.0435
      3 C          64.0053   90.1147   15.7000 C.ar    1  UNL1        0.0140
      4 C          63.2889   89.3496   16.7729 C.ar    1  UNL1        0.0011
      5 C          63.2032   87.8539   16.6975 C.ar    1  UNL1        0.0000
      6 C          63.8339   87.1234   15.5493 C.ar    1  UNL1        0.0001
      7 C          64.5504   87.8886   14.4764 C.ar    1  UNL1        0.0000
      8 C          64.6361   89.3843   14.5517 C.ar    1  UNL1        0.0011
      9 O          63.2310   92.3629   16.7469 O.co2   1  UNL1       -0.5446
     10 C          64.0910   91.6104   15.7753 C.2     1  UNL1        0.0729
     11 O          65.0368   92.3535   14.8790 O.co2   1  UNL1       -0.5446
     12 C          63.5596   83.4530   14.0651 C.2     1  UNL1        0.2111
     13 O          63.4160   82.6458   15.3212 O.2     1  UNL1       -0.2850
     14 C          63.6175   82.7646   12.7336 C.ar    1  UNL1        0.0961
     15 C          62.7169   81.6565   12.2741 C.ar    1  UNL1        0.0218
     16 C          63.1289   81.2704   10.8844 C.ar    1  UNL1        0.0200
     17 C          64.2842   82.1400   10.4851 C.ar    1  UNL1        0.0725
     18 N          64.5861   83.0634   11.6280 N.ar    1  UNL1       -0.3495
     19 H          65.2954   83.7457   11.6487 H       1  UNL1        0.1661
@<TRIPOS>UNITY_ATOM_ATTR
9 1
charge -1
@<TRIPOS>BOND
     1     9    10   ar
     2    10    11   ar
     3    10     3    1
     4     3     4   ar
     5     4     5   ar
     6     5     6   ar
     7     6     1    1
     8     1     2    2
     9     2    12    1
    10    12    13    2
    11    12    14    1
    12    14    15   ar
    13    15    16   ar
    14    16    17   ar
    15    17    18   ar
    16     6     7   ar
    17     7     8   ar
    18     8     3   ar
    19    18    14   ar
    20    18    19    1
@<TRIPOS>MOLECULE
*****
 19 20 0 0 0
SMALL
GASTEIGER

@<TRIPOS>ATOM
      1 C          61.7617   89.4146   10.4604 C.2     1  UNL1        0.0033
      2 C          62.1351   88.0867    9.8711 C.2     1  UNL1        0.0435
      3 C          64.9283   92.0316   12.2973 C.ar    1  UNL1        0.0140
      4 C          64.5651   92.1964   10.8513 C.ar    1  UNL1        0.0011
      5 C          63.5095   91.3240   10.2390 C.ar    1  UNL1        0.0000
      6 C          62.8172   90.2869   11.0727 C.ar    1  UNL1        0.0001
      7 C          63.1804   90.1221   12.5187 C.ar    1  UNL1        0.0000
      8 C          64.2360   90.9944   13.1310 C.ar    1  UNL1        0.0011
      9 O          65.9577   93.1920   14.3814 O.co2   1  UNL1       -0.5446
     10 C          65.9838   92.9039   12.9096 C.2     1  UNL1        0.0729
     11 O          67.0654   93.4881   12.0501 O.co2   1  UNL1       -0.5446
     12 C          61.0795   87.2144    9.2588 C.2     1  UNL1        0.2111
     13 O          59.6410   87.3958    9.6430 O.2     1  UNL1       -0.2850
     14 C          61.4626   86.1607    8.2623 C.ar    1  UNL1        0.0961
     15 C          62.7966   85.4814    8.1662 C.ar    1  UNL1        0.0218
     16 C          62.7375   84.5021    7.0316 C.ar    1  UNL1        0.0200
     17 C          61.3669   84.5762    6.4264 C.ar    1  UNL1        0.0725
     18 N          60.5791   85.6012    7.1871 N.ar    1  UNL1       -0.3495
     19 H          59.6459   85.8611    7.0114 H       1  UNL1        0.1661
@<TRIPOS>UNITY_ATOM_ATTR
9 1
charge -1
@<TRIPOS>BOND
     1     9    10   ar
     2    10    11   ar
     3    10     3    1
     4     3     4   ar
     5     4     5   ar
     6     5     6   ar
     7     6     1    1
     8     1     2    2
     9     2    12    1
    10    12    13    2
    11    12    14    1
    12    14    15   ar
    13    15    16   ar
    14    16    17   ar
    15    17    18   ar
    16     6     7   ar
    17     7     8   ar
    18     8     3   ar
    19    18    14   ar
    20    18    19    1
@<TRIPOS>MOLECULE
*****
 19 20 0 0 0
SMALL
GASTEIGER

@<TRIPOS>ATOM
      1 C          64.2072   88.6679   13.9050 C.2     1  UNL1        0.0033
      2 C          63.9763   89.3788   15.2055 C.2     1  UNL1        0.0435
      3 C          63.3212   84.2697   13.5568 C.ar    1  UNL1        0.0140
      4 C          62.8591   85.2148   12.4876 C.ar    1  UNL1        0.0011
      5 C          63.1545   86.6809   12.6036 C.ar    1  UNL1        0.0000
      6 C          63.9119   87.2018   13.7889 C.ar    1  UNL1        0.0001
      7 C          64.3739   86.2567   14.8581 C.ar    1  UNL1        0.0000
      8 C          64.0785   84.7907   14.7421 C.ar    1  UNL1        0.0011
      9 O          63.3181   81.8863   14.5909 O.co2   1  UNL1       -0.5446
     10 C          63.0258   82.8037   13.4407 C.2     1  UNL1        0.0729
     11 O          62.4381   82.2550   12.1744 O.co2   1  UNL1       -0.5446
     12 C          64.2717   90.8448   15.3216 C.2     1  UNL1        0.2111
     13 O          63.4915   91.6934   16.2814 O.2     1  UNL1       -0.2850
     14 C          65.3473   91.4623   14.4778 C.ar    1  UNL1        0.0961
     15 C          66.8134   91.4826   14.7941 C.ar    1  UNL1        0.0218
     16 C          67.5178   92.2007   13.6814 C.ar    1  UNL1        0.0200
     17 C          66.4870   92.6243   12.6774 C.ar    1  UNL1        0.0725
     18 N          65.1455   92.1679   13.1696 N.ar    1  UNL1       -0.3495
     19 H          64.2839   92.3071   12.7140 H       1  UNL1        0.1661
@<TRIPOS>UNITY_ATOM_ATTR
9 1
charge -1
@<TRIPOS>BOND
     1     9    10   ar
     2    10    11   ar
     3    10     3    1
     4     3     4   ar
     5     4     5   ar
     6     5     6   ar
     7     6     1    1
     8     1     2    2
     9     2    12    1
    10    12    13    2
    11    12    14    1
    12    14    15   ar
    13    15    16   ar
    14    16    17   ar
    15    17    18   ar
    16     6     7   ar
    17     7     8   ar
    18     8     3   ar
    19    18    14   ar
    20    18    19    1
@<TRIPOS>MOLECULE
*****
 19 20 0 0 0
SMALL
GASTEIGER

@<TRIPOS>ATOM
      1 C          63.9034   88.7028   13.3797 C.2     1  UNL1        0.0033
      2 C          64.6860   89.4803   14.3960 C.2     1  UNL1        0.0435
      3 C          63.5867   84.2274   13.7266 C.ar    1  UNL1        0.0140
      4 C          64.3109   85.0119   14.7801 C.ar    1  UNL1        0.0011
      5 C          64.4165   86.5037   14.6645 C.ar    1  UNL1        0.0000
      6 C          63.7978   87.2110   13.4953 C.ar    1  UNL1        0.0001
      7 C          63.0736   86.4265   12.4418 C.ar    1  UNL1        0.0000
      8 C          62.9681   84.9346   12.5574 C.ar    1  UNL1        0.0011
      9 O          64.2526   81.8542   12.9052 O.co2   1  UNL1       -0.5446
     10 C          63.4811   82.7356   13.8422 C.2     1  UNL1        0.0729
     11 O          62.6040   82.1251   14.8948 O.co2   1  UNL1       -0.5446
     12 C          64.7916   90.9721   14.2804 C.2     1  UNL1        0.2111
     13 O          63.6918   91.7532   13.6245 O.2     1  UNL1       -0.2850
     14 C          65.9971   91.6828   14.8207 C.ar    1  UNL1        0.0961
     15 C          67.4143   91.4801   14.3731 C.ar    1  UNL1        0.0218
     16 C          68.2901   92.3929   15.1792 C.ar    1  UNL1        0.0200
     17 C          67.4140   93.1598   16.1250 C.ar    1  UNL1        0.0725
     18 N          65.9969   92.7209   15.9034 N.ar    1  UNL1       -0.3495
     19 H          65.2056   93.0555   16.3842 H       1  UNL1        0.1661
@<TRIPOS>UNITY_ATOM_ATTR
9 1
charge -1
@<TRIPOS>BOND
     1     9    10   ar
     2    10    11   ar
     3    10     3    1
     4     3     4   ar
     5     4     5   ar
     6     5     6   ar
     7     6     1    1
     8     1     2    2
     9     2    12    1
    10    12    13    2
    11    12    14    1
    12    14    15   ar
    13    15    16   ar
    14    16    17   ar
    15    17    18   ar
    16     6     7   ar
    17     7     8   ar
    18     8     3   ar
    19    18    14   ar
    20    18    19    1
@<TRIPOS>MOLECULE
*****
 19 20 0 0 0
SMALL
GASTEIGER

@<TRIPOS>ATOM
      1 C          62.4452   89.1651   11.6802 C.2     1  UNL1        0.0033
      2 C          62.9670   87.7651   11.5481 C.2     1  UNL1        0.0435
      3 C          65.3059   92.5837   12.2961 C.ar    1  UNL1        0.0140
      4 C          64.6656   92.3738   10.9561 C.ar    1  UNL1        0.0011
      5 C          63.7120   91.2342   10.7508 C.ar    1  UNL1        0.0000
      6 C          63.3988   90.3047   11.8855 C.ar    1  UNL1        0.0001
      7 C          64.0391   90.5146   13.2256 C.ar    1  UNL1        0.0000
      8 C          64.9927   91.6541   13.4309 C.ar    1  UNL1        0.0011
      9 O          67.0048   94.2973   11.3332 O.co2   1  UNL1       -0.5446
     10 C          66.2595   93.7233   12.5014 C.2     1  UNL1        0.0729
     11 O          66.4678   94.2887   13.8750 O.co2   1  UNL1       -0.5446
     12 C          62.0134   86.6255   11.3428 C.2     1  UNL1        0.2111
     13 O          60.5773   86.9003   11.0079 O.2     1  UNL1       -0.2850
     14 C          62.4959   85.2111   11.4724 C.ar    1  UNL1        0.0961
     15 C          63.1176   84.3883   10.3831 C.ar    1  UNL1        0.0218
     16 C          63.4474   83.0399   10.9515 C.ar    1  UNL1        0.0200
     17 C          63.0296   83.0294   12.3921 C.ar    1  UNL1        0.0725
     18 N          62.4416   84.3713   12.7141 N.ar    1  UNL1       -0.3495
     19 H          62.0829   84.6516   13.5870 H       1  UNL1        0.1661
@<TRIPOS>UNITY_ATOM_ATTR
9 1
charge -1
@<TRIPOS>BOND
     1     9    10   ar
     2    10    11   ar
     3    10     3    1
     4     3     4   ar
     5     4     5   ar
     6     5     6   ar
     7     6     1    1
     8     1     2    2
     9     2    12    1
    10    12    13    2
    11    12    14    1
    12    14    15   ar
    13    15    16   ar
    14    16    17   ar
    15    17    18   ar
    16     6     7   ar
    17     7     8   ar
    18     8     3   ar
    19    18    14   ar
    20    18    19    1
