@<TRIPOS>MOLECULE
*****
 26 28 0 0 0
SMALL
GASTEIGER

@<TRIPOS>ATOM
      1 C          65.7683   92.4521   13.0370 C.ar    1  UNL1        0.1724
      2 C          64.7558   91.4488   13.5043 C.ar    1  UNL1        0.0400
      3 C          63.7978   90.8380   12.5249 C.ar    1  UNL1        0.0032
      4 C          62.7854   89.8348   12.9922 C.ar    1  UNL1       -0.0001
      5 C          61.8274   89.2240   12.0128 C.ar    1  UNL1       -0.0017
      6 C          61.8819   89.6165   10.5660 C.ar    1  UNL1        0.0056
      7 C          62.8944   90.6198   10.0987 C.ar    1  UNL1       -0.0016
      8 C          63.8523   91.2305   11.0781 C.ar    1  UNL1        0.0030
      9 C          64.8648   92.2338   10.6109 C.ar    1  UNL1        0.0400
     10 C          65.8228   92.8446   11.5903 C.ar    1  UNL1        0.1724
     11 C          60.9239   89.0057    9.5866 C.3     1  UNL1        0.1270
     12 O          60.3813   90.3673    9.2682 O.3     1  UNL1       -0.3785
     13 H          60.8484   91.0333    9.7966 H       1  UNL1        0.2111
     14 C          61.4666   87.6441    9.9051 C.ar    1  UNL1        0.0247
     15 C          62.3847   86.9575    8.9377 C.ar    1  UNL1        0.0014
     16 C          62.9273   85.5959    9.2562 C.ar    1  UNL1        0.0204
     17 C          62.5519   84.9208   10.5420 C.ar    1  UNL1        0.0989
     18 N          61.6339   85.6073   11.5093 N.ar    1  UNL1       -0.2426
     19 C          61.0912   86.9690   11.1909 C.ar    1  UNL1        0.0971
     20 C          59.9660   88.3949    8.6073 C.3     1  UNL1        0.0326
     21 C          59.2701   87.1088    8.9414 C.3     1  UNL1        0.0031
     22 C          59.7038   89.0702    7.2937 C.3     1  UNL1        0.0031
     23 C          66.6194   92.7325   15.4756 C.3     1  UNL1        0.2526
     24 O          66.7263   93.0629   14.0164 O.3     1  UNL1       -0.4684
     25 O          66.8353   93.8479   11.1230 O.3     1  UNL1       -0.4684
     26 C          66.4255   95.2706   10.8823 C.3     1  UNL1        0.2526
@<TRIPOS>BOND
     1    23    24    1
     2    24     1    1
     3     1     2   ar
     4     2     3   ar
     5     3     4   ar
     6     4     5   ar
     7     5     6   ar
     8     6    11    1
     9    11    12    1
    10    11    14    1
    11    14    15   ar
    12    15    16   ar
    13    16    17   ar
    14    17    18   ar
    15    18    19   ar
    16    11    20    1
    17    20    21    1
    18    20    22    1
    19     6     7   ar
    20     7     8   ar
    21     8     9   ar
    22     9    10   ar
    23    10    25    1
    24    25    26    1
    25    10     1   ar
    26     8     3   ar
    27    19    14   ar
    28    12    13    1
@<TRIPOS>MOLECULE
*****
 26 28 0 0 0
SMALL
GASTEIGER

@<TRIPOS>ATOM
      1 C          61.1965   88.1104    9.9417 C.ar    1  UNL1        0.1724
      2 C          61.6749   89.4750    9.5429 C.ar    1  UNL1        0.0400
      3 C          62.6880   90.1908   10.3863 C.ar    1  UNL1        0.0032
      4 C          63.1664   91.5553    9.9875 C.ar    1  UNL1       -0.0001
      5 C          64.1795   92.2710   10.8309 C.ar    1  UNL1       -0.0017
      6 C          64.7142   91.6222   12.0732 C.ar    1  UNL1        0.0056
      7 C          64.2358   90.2577   12.4720 C.ar    1  UNL1       -0.0016
      8 C          63.2227   89.5419   11.6286 C.ar    1  UNL1        0.0030
      9 C          62.7443   88.1773   12.0274 C.ar    1  UNL1        0.0400
     10 C          61.7312   87.4616   11.1840 C.ar    1  UNL1        0.1724
     11 C          65.7273   92.3380   12.9166 C.3     1  UNL1        0.1270
     12 O          65.0095   91.8932   14.1563 O.3     1  UNL1       -0.3785
     13 H          64.2372   91.3609   13.9094 H       1  UNL1        0.2111
     14 C          66.4450   92.7828   11.6769 C.ar    1  UNL1        0.0247
     15 C          67.4974   91.9067   11.0644 C.ar    1  UNL1        0.0014
     16 C          68.2151   92.3515    9.8246 C.ar    1  UNL1        0.0204
     17 C          67.8806   93.6724    9.1974 C.ar    1  UNL1        0.0989
     18 N          66.8283   94.5484    9.8098 N.ar    1  UNL1       -0.2426
     19 C          66.1105   94.1036   11.0496 C.ar    1  UNL1        0.0971
     20 C          66.7404   93.0538   13.7599 C.3     1  UNL1        0.0326
     21 C          67.8014   92.2754   14.4800 C.3     1  UNL1        0.0031
     22 C          66.6925   94.5480   13.8833 C.3     1  UNL1        0.0031
     23 C          60.6154   86.2821    8.1897 C.3     1  UNL1        0.2526
     24 O          60.1834   87.3946    9.0983 O.3     1  UNL1       -0.4684
     25 O          61.2528   86.0970   11.5828 O.3     1  UNL1       -0.4684
     26 C          62.2079   84.9404   11.5922 C.3     1  UNL1        0.2526
@<TRIPOS>BOND
     1    23    24    1
     2    24     1    1
     3     1     2   ar
     4     2     3   ar
     5     3     4   ar
     6     4     5   ar
     7     5     6   ar
     8     6    11    1
     9    11    12    1
    10    11    14    1
    11    14    15   ar
    12    15    16   ar
    13    16    17   ar
    14    17    18   ar
    15    18    19   ar
    16    11    20    1
    17    20    21    1
    18    20    22    1
    19     6     7   ar
    20     7     8   ar
    21     8     9   ar
    22     9    10   ar
    23    10    25    1
    24    25    26    1
    25    10     1   ar
    26     8     3   ar
    27    19    14   ar
    28    12    13    1
@<TRIPOS>MOLECULE
*****
 26 28 0 0 0
SMALL
GASTEIGER

@<TRIPOS>ATOM
      1 C          64.5192   91.3696   14.4862 C.ar    1  UNL1        0.1724
      2 C          64.5724   91.6370   13.0112 C.ar    1  UNL1        0.0400
      3 C          63.6189   90.9387   12.0875 C.ar    1  UNL1        0.0032
      4 C          63.6721   91.2061   10.6125 C.ar    1  UNL1       -0.0001
      5 C          62.7186   90.5077    9.6888 C.ar    1  UNL1       -0.0017
      6 C          61.7120   89.5420   10.2401 C.ar    1  UNL1        0.0056
      7 C          61.6588   89.2746   11.7151 C.ar    1  UNL1       -0.0016
      8 C          62.6122   89.9729   12.6388 C.ar    1  UNL1        0.0030
      9 C          62.5590   89.7056   14.1139 C.ar    1  UNL1        0.0400
     10 C          63.5125   90.4039   15.0375 C.ar    1  UNL1        0.1724
     11 C          60.7585   88.8437    9.3164 C.3     1  UNL1        0.1270
     12 O          60.1409   90.1624    8.9568 O.3     1  UNL1       -0.3785
     13 H          60.5890   90.8725    9.4425 H       1  UNL1        0.2111
     14 C          61.3761   87.5249    9.6760 C.ar    1  UNL1        0.0247
     15 C          62.2819   86.8306    8.7025 C.ar    1  UNL1        0.0014
     16 C          62.8996   85.5118    9.0621 C.ar    1  UNL1        0.0204
     17 C          62.6114   84.8873   10.3951 C.ar    1  UNL1        0.0989
     18 N          61.7056   85.5814   11.3685 N.ar    1  UNL1       -0.2426
     19 C          61.0879   86.9003   11.0090 C.ar    1  UNL1        0.0971
     20 C          59.8051   88.1453    8.3927 C.3     1  UNL1        0.0326
     21 C          59.3877   88.8010    7.1098 C.3     1  UNL1        0.0031
     22 C          59.2690   86.7911    8.7519 C.3     1  UNL1        0.0031
     23 C          66.4837   93.0287   14.8579 C.3     1  UNL1        0.2526
     24 O          65.4727   92.0680   15.4099 O.3     1  UNL1       -0.4684
     25 O          63.4593   90.1365   16.5126 O.3     1  UNL1       -0.4684
     26 C          63.1111   88.7665   17.0144 C.3     1  UNL1        0.2526
@<TRIPOS>BOND
     1    23    24    1
     2    24     1    1
     3     1     2   ar
     4     2     3   ar
     5     3     4   ar
     6     4     5   ar
     7     5     6   ar
     8     6    11    1
     9    11    12    1
    10    11    14    1
    11    14    15   ar
    12    15    16   ar
    13    16    17   ar
    14    17    18   ar
    15    18    19   ar
    16    11    20    1
    17    20    21    1
    18    20    22    1
    19     6     7   ar
    20     7     8   ar
    21     8     9   ar
    22     9    10   ar
    23    10    25    1
    24    25    26    1
    25    10     1   ar
    26     8     3   ar
    27    19    14   ar
    28    12    13    1
@<TRIPOS>MOLECULE
*****
 26 28 0 0 0
SMALL
GASTEIGER

@<TRIPOS>ATOM
      1 C          60.9169   88.1787    9.1402 C.ar    1  UNL1        0.1724
      2 C          61.8411   87.0893    8.6830 C.ar    1  UNL1        0.0400
      3 C          62.1797   85.9565    9.6062 C.ar    1  UNL1        0.0032
      4 C          63.1039   84.8670    9.1491 C.ar    1  UNL1       -0.0001
      5 C          63.4424   83.7343   10.0722 C.ar    1  UNL1       -0.0017
      6 C          62.8568   83.6910   11.4525 C.ar    1  UNL1        0.0056
      7 C          61.9326   84.7804   11.9096 C.ar    1  UNL1       -0.0016
      8 C          61.5941   85.9131   10.9865 C.ar    1  UNL1        0.0030
      9 C          60.6699   87.0027   11.4436 C.ar    1  UNL1        0.0400
     10 C          60.3313   88.1354   10.5205 C.ar    1  UNL1        0.1724
     11 C          63.1954   82.5582   12.3756 C.3     1  UNL1        0.1270
     12 O          63.0305   81.5870   11.2445 O.3     1  UNL1       -0.3785
     13 H          62.7885   82.0683   10.4378 H       1  UNL1        0.2111
     14 C          63.3603   83.5293   13.5068 C.ar    1  UNL1        0.0247
     15 C          64.5786   84.4018   13.5747 C.ar    1  UNL1        0.0014
     16 C          64.7435   85.3729   14.7059 C.ar    1  UNL1        0.0204
     17 C          63.6902   85.4717   15.7692 C.ar    1  UNL1        0.0989
     18 N          62.4719   84.5993   15.7013 N.ar    1  UNL1       -0.2426
     19 C          62.3069   83.6281   14.5701 C.ar    1  UNL1        0.0971
     20 C          63.5339   81.4254   13.2988 C.3     1  UNL1        0.0326
     21 C          64.9092   81.3244   13.8891 C.3     1  UNL1        0.0031
     22 C          62.4972   80.3936   13.6316 C.3     1  UNL1        0.0031
     23 C          59.4966   89.1455    7.1913 C.3     1  UNL1        0.2526
     24 O          60.5783   89.3115    8.2170 O.3     1  UNL1       -0.4684
     25 O          59.4071   89.2249   10.9776 O.3     1  UNL1       -0.4684
     26 C          59.9681   90.5146   11.4991 C.3     1  UNL1        0.2526
@<TRIPOS>BOND
     1    23    24    1
     2    24     1    1
     3     1     2   ar
     4     2     3   ar
     5     3     4   ar
     6     4     5   ar
     7     5     6   ar
     8     6    11    1
     9    11    12    1
    10    11    14    1
    11    14    15   ar
    12    15    16   ar
    13    16    17   ar
    14    17    18   ar
    15    18    19   ar
    16    11    20    1
    17    20    21    1
    18    20    22    1
    19     6     7   ar
    20     7     8   ar
    21     8     9   ar
    22     9    10   ar
    23    10    25    1
    24    25    26    1
    25    10     1   ar
    26     8     3   ar
    27    19    14   ar
    28    12    13    1
@<TRIPOS>MOLECULE
*****
 26 28 0 0 0
SMALL
GASTEIGER

@<TRIPOS>ATOM
      1 C          61.7704   87.9902   11.2567 C.ar    1  UNL1        0.1724
      2 C          62.6161   88.5805   12.3458 C.ar    1  UNL1        0.0400
      3 C          63.3809   89.8470   12.0984 C.ar    1  UNL1        0.0032
      4 C          64.2267   90.4374   13.1874 C.ar    1  UNL1       -0.0001
      5 C          64.9914   91.7038   12.9399 C.ar    1  UNL1       -0.0017
      6 C          64.9105   92.3798   11.6033 C.ar    1  UNL1        0.0056
      7 C          64.0648   91.7894   10.5143 C.ar    1  UNL1       -0.0016
      8 C          63.3000   90.5230   10.7618 C.ar    1  UNL1        0.0030
      9 C          62.4542   89.9326    9.6727 C.ar    1  UNL1        0.0400
     10 C          61.6894   88.6662    9.9202 C.ar    1  UNL1        0.1724
     11 C          65.6753   93.6463   11.3559 C.3     1  UNL1        0.1270
     12 O          64.7051   94.0210   10.2750 O.3     1  UNL1       -0.3785
     13 H          64.0297   93.3297   10.1929 H       1  UNL1        0.2111
     14 C          66.6455   93.2715   12.4367 C.ar    1  UNL1        0.0247
     15 C          66.5237   93.8856   13.7999 C.ar    1  UNL1        0.0014
     16 C          67.4938   93.5108   14.8807 C.ar    1  UNL1        0.0204
     17 C          68.5859   92.5220   14.5985 C.ar    1  UNL1        0.0989
     18 N          68.7077   91.9079   13.2354 N.ar    1  UNL1       -0.2426
     19 C          67.7375   92.2827   12.1545 C.ar    1  UNL1        0.0971
     20 C          66.4401   94.9127   11.1085 C.3     1  UNL1        0.0326
     21 C          66.1725   96.1266   11.9479 C.3     1  UNL1        0.0031
     22 C          67.4726   94.9651   10.0216 C.3     1  UNL1        0.0031
     23 C          61.6556   85.3946   11.2577 C.3     1  UNL1        0.2526
     24 O          61.0055   86.7237   11.5042 O.3     1  UNL1       -0.4684
     25 O          60.8436   88.0757    8.8310 O.3     1  UNL1       -0.4684
     26 C          59.8298   88.9259    8.1245 C.3     1  UNL1        0.2526
@<TRIPOS>BOND
     1    23    24    1
     2    24     1    1
     3     1     2   ar
     4     2     3   ar
     5     3     4   ar
     6     4     5   ar
     7     5     6   ar
     8     6    11    1
     9    11    12    1
    10    11    14    1
    11    14    15   ar
    12    15    16   ar
    13    16    17   ar
    14    17    18   ar
    15    18    19   ar
    16    11    20    1
    17    20    21    1
    18    20    22    1
    19     6     7   ar
    20     7     8   ar
    21     8     9   ar
    22     9    10   ar
    23    10    25    1
    24    25    26    1
    25    10     1   ar
    26     8     3   ar
    27    19    14   ar
    28    12    13    1
@<TRIPOS>MOLECULE
*****
 26 28 0 0 0
SMALL
GASTEIGER

@<TRIPOS>ATOM
      1 C          66.1729   93.0611   13.1301 C.ar    1  UNL1        0.1724
      2 C          65.4891   91.8342   13.6563 C.ar    1  UNL1        0.0400
      3 C          64.5800   91.0414   12.7645 C.ar    1  UNL1        0.0032
      4 C          63.8962   89.8144   13.2907 C.ar    1  UNL1       -0.0001
      5 C          62.9872   89.0217   12.3989 C.ar    1  UNL1       -0.0017
      6 C          62.7621   89.4560   10.9809 C.ar    1  UNL1        0.0056
      7 C          63.4459   90.6829   10.4547 C.ar    1  UNL1       -0.0016
      8 C          64.3549   91.4756   11.3465 C.ar    1  UNL1        0.0030
      9 C          65.0388   92.7026   10.8203 C.ar    1  UNL1        0.0400
     10 C          65.9477   93.4953   11.7120 C.ar    1  UNL1        0.1724
     11 C          61.8530   88.6632   10.0891 C.3     1  UNL1        0.1270
     12 O          63.0363   88.2082    9.2874 O.3     1  UNL1       -0.3785
     13 H          63.8456   88.5935    9.6582 H       1  UNL1        0.2111
     14 C          60.6698   89.1181   10.8909 C.ar    1  UNL1        0.0247
     15 C          60.1785   90.5301   10.7678 C.ar    1  UNL1        0.0014
     16 C          58.9953   90.9851   11.5696 C.ar    1  UNL1        0.0204
     17 C          58.3032   90.0281   12.4944 C.ar    1  UNL1        0.0989
     18 N          58.7944   88.6162   12.6175 N.ar    1  UNL1       -0.2426
     19 C          59.9778   88.1612   11.8158 C.ar    1  UNL1        0.0971
     20 C          60.9440   87.8705    9.1974 C.3     1  UNL1        0.0326
     21 C          59.9776   88.5765    8.2933 C.3     1  UNL1        0.0031
     22 C          61.0014   86.3715    9.2098 C.3     1  UNL1        0.0031
     23 C          67.5104   93.2929   15.3453 C.3     1  UNL1        0.2526
     24 O          67.0819   93.8539   14.0219 O.3     1  UNL1       -0.4684
     25 O          66.6316   94.7223   11.1858 O.3     1  UNL1       -0.4684
     26 C          67.0372   94.7946    9.7435 C.3     1  UNL1        0.2526
@<TRIPOS>BOND
     1    23    24    1
     2    24     1    1
     3     1     2   ar
     4     2     3   ar
     5     3     4   ar
     6     4     5   ar
     7     5     6   ar
     8     6    11    1
     9    11    12    1
    10    11    14    1
    11    14    15   ar
    12    15    16   ar
    13    16    17   ar
    14    17    18   ar
    15    18    19   ar
    16    11    20    1
    17    20    21    1
    18    20    22    1
    19     6     7   ar
    20     7     8   ar
    21     8     9   ar
    22     9    10   ar
    23    10    25    1
    24    25    26    1
    25    10     1   ar
    26     8     3   ar
    27    19    14   ar
    28    12    13    1
@<TRIPOS>MOLECULE
*****
 26 28 0 0 0
SMALL
GASTEIGER

@<TRIPOS>ATOM
      1 C          63.8386   82.7339   12.6077 C.ar    1  UNL1        0.1724
      2 C          63.8831   83.0385   11.1397 C.ar    1  UNL1        0.0400
      3 C          63.1167   84.2060   10.5924 C.ar    1  UNL1        0.0032
      4 C          63.1613   84.5107    9.1243 C.ar    1  UNL1       -0.0001
      5 C          62.3948   85.6782    8.5771 C.ar    1  UNL1       -0.0017
      6 C          61.5838   86.5410    9.4978 C.ar    1  UNL1        0.0056
      7 C          61.5393   86.2363   10.9659 C.ar    1  UNL1       -0.0016
      8 C          62.3057   85.0689   11.5131 C.ar    1  UNL1        0.0030
      9 C          62.2612   84.7642   12.9812 C.ar    1  UNL1        0.0400
     10 C          63.0276   83.5967   13.5285 C.ar    1  UNL1        0.1724
     11 C          60.8174   87.7085    8.9505 C.3     1  UNL1        0.1270
     12 O          60.3939   86.8793    7.7745 O.3     1  UNL1       -0.3785
     13 H          60.7699   85.9887    7.8547 H       1  UNL1        0.2111
     14 C          61.2408   88.5377   10.1265 C.ar    1  UNL1        0.0247
     15 C          62.5906   89.1920   10.1358 C.ar    1  UNL1        0.0014
     16 C          63.0141   90.0213   11.3118 C.ar    1  UNL1        0.0204
     17 C          62.0878   90.1963   12.4785 C.ar    1  UNL1        0.0989
     18 N          60.7381   89.5420   12.4693 N.ar    1  UNL1       -0.2426
     19 C          60.3145   88.7127   11.2933 C.ar    1  UNL1        0.0971
     20 C          60.0510   88.8760    8.4032 C.3     1  UNL1        0.0326
     21 C          59.3072   88.7439    7.1073 C.3     1  UNL1        0.0031
     22 C          60.0283   90.1757    9.1519 C.3     1  UNL1        0.0031
     23 C          63.8725   80.4037   13.7564 C.3     1  UNL1        0.2526
     24 O          64.6050   81.5663   13.1551 O.3     1  UNL1       -0.4684
     25 O          62.9830   83.2920   14.9966 O.3     1  UNL1       -0.4684
     26 C          62.4429   84.3092   15.9576 C.3     1  UNL1        0.2526
@<TRIPOS>BOND
     1    23    24    1
     2    24     1    1
     3     1     2   ar
     4     2     3   ar
     5     3     4   ar
     6     4     5   ar
     7     5     6   ar
     8     6    11    1
     9    11    12    1
    10    11    14    1
    11    14    15   ar
    12    15    16   ar
    13    16    17   ar
    14    17    18   ar
    15    18    19   ar
    16    11    20    1
    17    20    21    1
    18    20    22    1
    19     6     7   ar
    20     7     8   ar
    21     8     9   ar
    22     9    10   ar
    23    10    25    1
    24    25    26    1
    25    10     1   ar
    26     8     3   ar
    27    19    14   ar
    28    12    13    1
@<TRIPOS>MOLECULE
*****
 26 28 0 0 0
SMALL
GASTEIGER

@<TRIPOS>ATOM
      1 C          61.1448   88.0948   10.5541 C.ar    1  UNL1        0.1724
      2 C          62.1123   87.7293   11.6405 C.ar    1  UNL1        0.0400
      3 C          62.9636   88.7892   12.2746 C.ar    1  UNL1        0.0032
      4 C          63.9311   88.4236   13.3609 C.ar    1  UNL1       -0.0001
      5 C          64.7823   89.4835   13.9949 C.ar    1  UNL1       -0.0017
      6 C          64.6660   90.9090   13.5426 C.ar    1  UNL1        0.0056
      7 C          63.6985   91.2745   12.4562 C.ar    1  UNL1       -0.0016
      8 C          62.8473   90.2146   11.8222 C.ar    1  UNL1        0.0030
      9 C          61.8797   90.5801   10.7358 C.ar    1  UNL1        0.0400
     10 C          61.0285   89.5202   10.1017 C.ar    1  UNL1        0.1724
     11 C          65.5173   91.9689   14.1767 C.3     1  UNL1        0.1270
     12 O          64.7372   91.8334   15.4506 O.3     1  UNL1       -0.3785
     13 H          64.0500   91.1580   15.3387 H       1  UNL1        0.2111
     14 C          66.2975   92.1043   12.9027 C.ar    1  UNL1        0.0247
     15 C          65.6383   92.6598   11.6750 C.ar    1  UNL1        0.0014
     16 C          66.4185   92.7953   10.4011 C.ar    1  UNL1        0.0204
     17 C          67.8578   92.3753   10.3548 C.ar    1  UNL1        0.0989
     18 N          68.5169   91.8199   11.5823 N.ar    1  UNL1       -0.2426
     19 C          67.7367   91.6844   12.8564 C.ar    1  UNL1        0.0971
     20 C          66.3686   93.0287   14.8107 C.3     1  UNL1        0.0326
     21 C          66.9186   92.8228   16.1909 C.3     1  UNL1        0.0031
     22 C          66.6698   94.2947   14.0644 C.3     1  UNL1        0.0031
     23 C          60.9235   85.9879    9.0501 C.3     1  UNL1        0.2526
     24 O          60.2935   87.0349    9.9200 O.3     1  UNL1       -0.4684
     25 O          60.0609   89.8858    9.0153 O.3     1  UNL1       -0.4684
     26 C          59.9611   89.0365    7.7830 C.3     1  UNL1        0.2526
@<TRIPOS>BOND
     1    23    24    1
     2    24     1    1
     3     1     2   ar
     4     2     3   ar
     5     3     4   ar
     6     4     5   ar
     7     5     6   ar
     8     6    11    1
     9    11    12    1
    10    11    14    1
    11    14    15   ar
    12    15    16   ar
    13    16    17   ar
    14    17    18   ar
    15    18    19   ar
    16    11    20    1
    17    20    21    1
    18    20    22    1
    19     6     7   ar
    20     7     8   ar
    21     8     9   ar
    22     9    10   ar
    23    10    25    1
    24    25    26    1
    25    10     1   ar
    26     8     3   ar
    27    19    14   ar
    28    12    13    1
@<TRIPOS>MOLECULE
*****
 26 28 0 0 0
SMALL
GASTEIGER

@<TRIPOS>ATOM
      1 C          61.0562   86.7208    9.2727 C.ar    1  UNL1        0.1724
      2 C          61.0120   88.2046    9.4878 C.ar    1  UNL1        0.0400
      3 C          61.8085   88.8257   10.5969 C.ar    1  UNL1        0.0032
      4 C          61.7643   90.3096   10.8119 C.ar    1  UNL1       -0.0001
      5 C          62.5607   90.9306   11.9210 C.ar    1  UNL1       -0.0017
      6 C          63.4013   90.0679   12.8149 C.ar    1  UNL1        0.0056
      7 C          63.4454   88.5841   12.5998 C.ar    1  UNL1       -0.0016
      8 C          62.6490   87.9630   11.4908 C.ar    1  UNL1        0.0030
      9 C          62.6932   86.4791   11.2757 C.ar    1  UNL1        0.0400
     10 C          61.8968   85.8580   10.1667 C.ar    1  UNL1        0.1724
     11 C          64.1977   90.6890   13.9240 C.3     1  UNL1        0.1270
     12 O          64.4871   91.8748   13.0521 O.3     1  UNL1       -0.3785
     13 H          64.0639   91.7517   12.1880 H       1  UNL1        0.2111
     14 C          63.9084   89.5032   14.7958 C.ar    1  UNL1        0.0247
     15 C          64.6479   88.2160   14.5808 C.ar    1  UNL1        0.0014
     16 C          64.3585   87.0302   15.4527 C.ar    1  UNL1        0.0204
     17 C          63.3297   87.1316   16.5395 C.ar    1  UNL1        0.0989
     18 N          62.5902   88.4187   16.7545 N.ar    1  UNL1       -0.2426
     19 C          62.8795   89.6046   15.8826 C.ar    1  UNL1        0.0971
     20 C          64.9941   91.3101   15.0330 C.3     1  UNL1        0.0326
     21 C          64.3014   91.8029   16.2688 C.3     1  UNL1        0.0031
     22 C          66.4833   91.4384   14.9063 C.3     1  UNL1        0.0031
     23 C          59.0258   86.7825    7.6529 C.3     1  UNL1        0.2526
     24 O          60.2598   86.0996    8.1637 O.3     1  UNL1       -0.4684
     25 O          61.9409   84.3742    9.9515 O.3     1  UNL1       -0.4684
     26 C          63.2586   83.6576    9.9350 C.3     1  UNL1        0.2526
@<TRIPOS>BOND
     1    23    24    1
     2    24     1    1
     3     1     2   ar
     4     2     3   ar
     5     3     4   ar
     6     4     5   ar
     7     5     6   ar
     8     6    11    1
     9    11    12    1
    10    11    14    1
    11    14    15   ar
    12    15    16   ar
    13    16    17   ar
    14    17    18   ar
    15    18    19   ar
    16    11    20    1
    17    20    21    1
    18    20    22    1
    19     6     7   ar
    20     7     8   ar
    21     8     9   ar
    22     9    10   ar
    23    10    25    1
    24    25    26    1
    25    10     1   ar
    26     8     3   ar
    27    19    14   ar
    28    12    13    1
