@<TRIPOS>MOLECULE
*****
 33 36 0 0 0
SMALL
GASTEIGER

@<TRIPOS>ATOM
      1 C          64.1798   90.9280   14.3113 C.2     1  UNL1        0.2301
      2 O          65.3825   91.8230   14.2630 O.2     1  UNL1       -0.2745
      3 N          63.3469   90.7238   13.0806 N.am    1  UNL1       -0.2792
      4 C          63.7167   91.4147   11.8016 C.3     1  UNL1        0.0951
      5 C          62.8838   91.2105   10.5709 C.3     1  UNL1        0.0410
      6 C          61.6811   90.3154   10.6192 C.3     1  UNL1        0.0724
      7 C          61.3113   89.6245   11.8983 C.3     1  UNL1        0.0410
      8 C          62.1442   89.8287   13.1290 C.3     1  UNL1        0.0951
      9 N          60.8482   90.1112    9.3886 N.pl3   1  UNL1       -0.3339
     10 H          60.4428   90.8851    8.9346 H       1  UNL1        0.1468
     11 C          60.6330   88.7281    8.8495 C.ar    1  UNL1        0.0469
     12 C          59.4401   88.4360    7.9884 C.ar    1  UNL1        0.0144
     13 C          59.2248   87.0528    7.4494 C.ar    1  UNL1        0.0036
     14 C          60.2026   85.9618    7.7715 C.ar    1  UNL1        0.0297
     15 C          61.3955   86.2540    8.6326 C.ar    1  UNL1        0.1414
     16 F          62.3733   85.1629    8.9547 F       1  UNL1       -0.2041
     17 C          61.6107   87.6371    9.1716 C.ar    1  UNL1        0.0439
     18 C          63.8100   90.2370   15.5904 C.3     1  UNL1        0.1116
     19 C          63.7974   85.7418   15.7971 C.ar    1  UNL1       -0.0062
     20 C          63.0700   86.5424   16.8364 C.ar    1  UNL1       -0.0032
     21 C          63.0742   88.0409   16.7674 C.ar    1  UNL1       -0.0041
     22 C          63.8058   88.7386   15.6593 C.ar    1  UNL1       -0.0131
     23 C          64.5331   87.9380   14.6201 C.ar    1  UNL1       -0.0041
     24 C          64.5289   86.4396   14.6891 C.ar    1  UNL1       -0.0032
     25 C          63.7932   84.2434   15.8661 C.3     1  UNL1        0.0992
     26 C          64.5154   83.0220   10.8674 C.3     1  UNL1        0.0186
     27 C          63.7773   82.8274   12.1586 C.3     1  UNL1        0.0703
     28 C          64.1543   83.6327   13.3667 C.3     1  UNL1        0.0882
     29 N          63.4162   83.4381   14.6580 N.3     1  UNL1       -0.2666
     30 C          62.3011   82.4383   14.7412 C.3     1  UNL1        0.0897
     31 C          61.9242   81.6330   13.5331 C.3     1  UNL1        0.0861
     32 N          62.6623   81.8276   12.2419 N.3     1  UNL1       -0.2963
     33 H          61.9694   82.1006   11.5449 H       1  UNL1        0.1233
@<TRIPOS>BOND
     1    27    26    1
     2    27    28    1
     3    28    29    1
     4    29    25    1
     5    25    19    1
     6    19    20   ar
     7    20    21   ar
     8    21    22   ar
     9    22    18    1
    10    18     1    1
    11     1     2    2
    12     1     3   am
    13     3     4    1
    14     4     5    1
    15     5     6    1
    16     6     9    1
    17     9    11    1
    18    11    12   ar
    19    12    13   ar
    20    13    14   ar
    21    14    15   ar
    22    15    16    1
    23    15    17   ar
    24     6     7    1
    25     7     8    1
    26    22    23   ar
    27    23    24   ar
    28    29    30    1
    29    30    31    1
    30    31    32    1
    31    32    27    1
    32    24    19   ar
    33     8     3    1
    34    17    11   ar
    35     9    10    1
    36    32    33    1
@<TRIPOS>MOLECULE
*****
 33 36 0 0 0
SMALL
GASTEIGER

@<TRIPOS>ATOM
      1 C          60.7621   88.7575    9.6244 C.2     1  UNL1        0.2301
      2 O          60.0938   89.0235    8.3081 O.2     1  UNL1       -0.2745
      3 N          61.4404   87.4422    9.8689 N.am    1  UNL1       -0.2792
      4 C          61.4504   86.3928    8.7972 C.3     1  UNL1        0.0951
      5 C          62.1287   85.0775    9.0417 C.3     1  UNL1        0.0410
      6 C          62.7970   84.8115   10.3580 C.3     1  UNL1        0.0724
      7 C          62.7870   85.8609   11.4298 C.3     1  UNL1        0.0410
      8 C          62.1087   87.1763   11.1853 C.3     1  UNL1        0.0951
      9 N          63.4753   83.4962   10.6025 N.pl3   1  UNL1       -0.3339
     10 H          64.1690   83.1770    9.9810 H       1  UNL1        0.1468
     11 C          63.0968   82.6672   11.7939 C.ar    1  UNL1        0.0469
     12 C          62.8492   81.1963   11.6359 C.ar    1  UNL1        0.0144
     13 C          62.4706   80.3672   12.8273 C.ar    1  UNL1        0.0036
     14 C          62.3398   81.0091   14.1766 C.ar    1  UNL1        0.0297
     15 C          62.5875   82.4801   14.3346 C.ar    1  UNL1        0.1414
     16 F          62.4566   83.1220   15.6840 F       1  UNL1       -0.2041
     17 C          62.9660   83.3091   13.1432 C.ar    1  UNL1        0.0439
     18 C          60.7521   89.8069   10.6963 C.3     1  UNL1        0.1116
     19 C          64.5816   91.8547   11.8759 C.ar    1  UNL1       -0.0062
     20 C          64.0992   91.9259   10.4573 C.ar    1  UNL1       -0.0032
     21 C          62.8227   91.2433   10.0641 C.ar    1  UNL1       -0.0041
     22 C          62.0286   90.4895   11.0895 C.ar    1  UNL1       -0.0131
     23 C          62.5110   90.4184   12.5080 C.ar    1  UNL1       -0.0041
     24 C          63.7875   91.1010   12.9012 C.ar    1  UNL1       -0.0032
     25 C          65.8581   92.5373   12.2691 C.3     1  UNL1        0.0992
     26 C          67.1271   96.8559    9.6732 C.3     1  UNL1        0.0186
     27 C          67.3223   95.3915    9.9325 C.3     1  UNL1        0.0703
     28 C          66.4926   94.6966   10.9711 C.3     1  UNL1        0.0882
     29 N          66.6878   93.2321   11.2304 N.3     1  UNL1       -0.2666
     30 C          67.7126   92.4625   10.4511 C.3     1  UNL1        0.0897
     31 C          68.5423   93.1574    9.4125 C.3     1  UNL1        0.0861
     32 N          68.3471   94.6218    9.1532 N.3     1  UNL1       -0.2963
     33 H          68.0997   94.7160    8.1681 H       1  UNL1        0.1233
@<TRIPOS>BOND
     1    27    26    1
     2    27    28    1
     3    28    29    1
     4    29    25    1
     5    25    19    1
     6    19    20   ar
     7    20    21   ar
     8    21    22   ar
     9    22    18    1
    10    18     1    1
    11     1     2    2
    12     1     3   am
    13     3     4    1
    14     4     5    1
    15     5     6    1
    16     6     9    1
    17     9    11    1
    18    11    12   ar
    19    12    13   ar
    20    13    14   ar
    21    14    15   ar
    22    15    16    1
    23    15    17   ar
    24     6     7    1
    25     7     8    1
    26    22    23   ar
    27    23    24   ar
    28    29    30    1
    29    30    31    1
    30    31    32    1
    31    32    27    1
    32    24    19   ar
    33     8     3    1
    34    17    11   ar
    35     9    10    1
    36    32    33    1
@<TRIPOS>MOLECULE
*****
 33 36 0 0 0
SMALL
GASTEIGER

@<TRIPOS>ATOM
      1 C          63.5872   89.9813   15.5776 C.2     1  UNL1        0.2301
      2 O          63.1325   90.6984   16.8141 O.2     1  UNL1       -0.2745
      3 N          63.7115   88.4864   15.5804 N.am    1  UNL1       -0.2792
      4 C          63.3812   87.7087   16.8198 C.3     1  UNL1        0.0951
      5 C          63.5056   86.2139   16.8227 C.3     1  UNL1        0.0410
      6 C          63.9602   85.4968   15.5862 C.3     1  UNL1        0.0724
      7 C          64.2906   86.2744   14.3467 C.3     1  UNL1        0.0410
      8 C          64.1662   87.7693   14.3439 C.3     1  UNL1        0.0951
      9 N          64.0846   84.0019   15.5891 N.pl3   1  UNL1       -0.3339
     10 H          64.4600   83.5407   16.3736 H       1  UNL1        0.1468
     11 C          63.6368   83.2098   14.3966 C.ar    1  UNL1        0.0469
     12 C          62.4730   82.2708   14.5140 C.ar    1  UNL1        0.0144
     13 C          62.0252   81.4786   13.3214 C.ar    1  UNL1        0.0036
     14 C          62.7413   81.6255   12.0116 C.ar    1  UNL1        0.0297
     15 C          63.9052   82.5645   11.8943 C.ar    1  UNL1        0.1414
     16 F          64.6213   82.7114   10.5845 F       1  UNL1       -0.2041
     17 C          64.3529   83.3566   13.0868 C.ar    1  UNL1        0.0439
     18 C          63.9176   90.7590   14.3381 C.3     1  UNL1        0.1116
     19 C          61.5545   90.0922   10.5670 C.ar    1  UNL1       -0.0062
     20 C          60.9894   89.6698   11.8907 C.ar    1  UNL1       -0.0032
     21 C          61.7771   89.8920   13.1478 C.ar    1  UNL1       -0.0041
     22 C          63.1299   90.5367   13.0811 C.ar    1  UNL1       -0.0131
     23 C          63.6949   90.9591   11.7574 C.ar    1  UNL1       -0.0041
     24 C          62.9073   90.7369   10.5003 C.ar    1  UNL1       -0.0032
     25 C          60.7669   89.8700    9.3099 C.3     1  UNL1        0.0992
     26 C          62.6252   85.0667    8.6205 C.3     1  UNL1        0.0186
     27 C          61.5415   86.0826    8.4122 C.3     1  UNL1        0.0703
     28 C          61.6960   87.4683    8.9652 C.3     1  UNL1        0.0882
     29 N          60.6123   88.4842    8.7568 N.3     1  UNL1       -0.2666
     30 C          59.3739   88.1144    7.9955 C.3     1  UNL1        0.0897
     31 C          59.2194   86.7287    7.4425 C.3     1  UNL1        0.0861
     32 N          60.3031   85.7128    7.6508 N.3     1  UNL1       -0.2963
     33 H          60.6060   85.4112    6.7247 H       1  UNL1        0.1233
@<TRIPOS>BOND
     1    27    26    1
     2    27    28    1
     3    28    29    1
     4    29    25    1
     5    25    19    1
     6    19    20   ar
     7    20    21   ar
     8    21    22   ar
     9    22    18    1
    10    18     1    1
    11     1     2    2
    12     1     3   am
    13     3     4    1
    14     4     5    1
    15     5     6    1
    16     6     9    1
    17     9    11    1
    18    11    12   ar
    19    12    13   ar
    20    13    14   ar
    21    14    15   ar
    22    15    16    1
    23    15    17   ar
    24     6     7    1
    25     7     8    1
    26    22    23   ar
    27    23    24   ar
    28    29    30    1
    29    30    31    1
    30    31    32    1
    31    32    27    1
    32    24    19   ar
    33     8     3    1
    34    17    11   ar
    35     9    10    1
    36    32    33    1
@<TRIPOS>MOLECULE
*****
 33 36 0 0 0
SMALL
GASTEIGER

@<TRIPOS>ATOM
      1 C          60.5065   88.7105    9.5695 C.2     1  UNL1        0.2301
      2 O          59.7843   88.8578    8.2631 O.2     1  UNL1       -0.2745
      3 N          61.2593   87.4488    9.8722 N.am    1  UNL1       -0.2792
      4 C          61.2897   86.3345    8.8686 C.3     1  UNL1        0.0951
      5 C          62.0425   85.0729    9.1713 C.3     1  UNL1        0.0410
      6 C          62.7648   84.9255   10.4776 C.3     1  UNL1        0.0724
      7 C          62.7343   86.0399   11.4813 C.3     1  UNL1        0.0410
      8 C          61.9816   87.3015   11.1786 C.3     1  UNL1        0.0951
      9 N          63.5175   83.6639   10.7803 N.pl3   1  UNL1       -0.3339
     10 H          64.3105   83.4241   10.2484 H       1  UNL1        0.1468
     11 C          63.0621   82.7676   11.8935 C.ar    1  UNL1        0.0469
     12 C          62.7100   83.3511   13.2297 C.ar    1  UNL1        0.0144
     13 C          62.2546   82.4547   14.3430 C.ar    1  UNL1        0.0036
     14 C          62.1514   80.9750   14.1200 C.ar    1  UNL1        0.0297
     15 C          62.5035   80.3916   12.7837 C.ar    1  UNL1        0.1414
     16 F          62.4003   78.9119   12.5606 F       1  UNL1       -0.2041
     17 C          62.9589   81.2879   11.6705 C.ar    1  UNL1        0.0439
     18 C          60.4761   89.8248   10.5732 C.3     1  UNL1        0.1116
     19 C          64.3139   91.7666   11.8963 C.ar    1  UNL1       -0.0062
     20 C          63.4471   91.0604   12.8963 C.ar    1  UNL1       -0.0032
     21 C          62.1678   90.4131   12.4552 C.ar    1  UNL1       -0.0041
     22 C          61.7553   90.4721   11.0142 C.ar    1  UNL1       -0.0131
     23 C          62.6222   91.1783   10.0143 C.ar    1  UNL1       -0.0041
     24 C          63.9014   91.8256   10.4553 C.ar    1  UNL1       -0.0032
     25 C          65.5932   92.4139   12.3373 C.3     1  UNL1        0.0992
     26 C          69.2147   92.3017    8.6127 C.3     1  UNL1        0.0186
     27 C          68.2641   93.0755    9.4775 C.3     1  UNL1        0.0703
     28 C          67.4039   92.3579   10.4750 C.3     1  UNL1        0.0882
     29 N          66.4534   93.1316   11.3397 N.3     1  UNL1       -0.2666
     30 C          66.3629   94.6229   11.2069 C.3     1  UNL1        0.0897
     31 C          67.2231   95.3405   10.2094 C.3     1  UNL1        0.0861
     32 N          68.1737   94.5668    9.3447 N.3     1  UNL1       -0.2963
     33 H          69.1065   94.9359    9.5291 H       1  UNL1        0.1233
@<TRIPOS>BOND
     1    27    26    1
     2    27    28    1
     3    28    29    1
     4    29    25    1
     5    25    19    1
     6    19    20   ar
     7    20    21   ar
     8    21    22   ar
     9    22    18    1
    10    18     1    1
    11     1     2    2
    12     1     3   am
    13     3     4    1
    14     4     5    1
    15     5     6    1
    16     6     9    1
    17     9    11    1
    18    11    12   ar
    19    12    13   ar
    20    13    14   ar
    21    14    15   ar
    22    15    16    1
    23    15    17   ar
    24     6     7    1
    25     7     8    1
    26    22    23   ar
    27    23    24   ar
    28    29    30    1
    29    30    31    1
    30    31    32    1
    31    32    27    1
    32    24    19   ar
    33     8     3    1
    34    17    11   ar
    35     9    10    1
    36    32    33    1
@<TRIPOS>MOLECULE
*****
 33 36 0 0 0
SMALL
GASTEIGER

@<TRIPOS>ATOM
      1 C          64.1225   84.2852   14.6707 C.2     1  UNL1        0.2301
      2 O          65.1875   83.2719   14.9690 O.2     1  UNL1       -0.2745
      3 N          63.6529   84.4867   13.2604 N.am    1  UNL1       -0.2792
      4 C          64.2483   83.6749   12.1485 C.3     1  UNL1        0.0951
      5 C          63.7787   83.8764   10.7382 C.3     1  UNL1        0.0410
      6 C          62.7138   84.8897   10.4399 C.3     1  UNL1        0.0724
      7 C          62.1184   85.7016   11.5519 C.3     1  UNL1        0.0410
      8 C          62.5879   85.5000   12.9621 C.3     1  UNL1        0.0951
      9 N          62.2442   85.0912    9.0296 N.pl3   1  UNL1       -0.3339
     10 H          62.5567   84.4893    8.3160 H       1  UNL1        0.1468
     11 C          61.2985   86.2098    8.7066 C.ar    1  UNL1        0.0469
     12 C          60.1291   85.9649    7.7998 C.ar    1  UNL1        0.0144
     13 C          59.1833   87.0836    7.4768 C.ar    1  UNL1        0.0036
     14 C          59.4071   88.4471    8.0605 C.ar    1  UNL1        0.0297
     15 C          60.5767   88.6919    8.9674 C.ar    1  UNL1        0.1414
     16 F          60.8005   90.0554    9.5512 F       1  UNL1       -0.2041
     17 C          61.5223   87.5733    9.2904 C.ar    1  UNL1        0.0439
     18 C          63.5271   85.0970   15.7827 C.3     1  UNL1        0.1116
     19 C          63.8365   89.5857   15.7063 C.ar    1  UNL1       -0.0062
     20 C          64.4918   88.7704   14.6312 C.ar    1  UNL1       -0.0032
     21 C          64.3887   87.2741   14.6566 C.ar    1  UNL1       -0.0041
     22 C          63.6302   86.5933   15.7572 C.ar    1  UNL1       -0.0131
     23 C          62.9750   87.4086   16.8323 C.ar    1  UNL1       -0.0041
     24 C          63.0781   88.9048   16.8068 C.ar    1  UNL1       -0.0032
     25 C          63.9397   91.0820   15.6808 C.3     1  UNL1        0.0992
     26 C          68.4777   93.6109   15.7848 C.3     1  UNL1        0.0186
     27 C          67.3442   93.0077   15.0094 C.3     1  UNL1        0.0703
     28 C          66.2087   92.3464   15.7328 C.3     1  UNL1        0.0882
     29 N          65.0752   91.7433   14.9573 N.3     1  UNL1       -0.2666
     30 C          65.0771   91.8013   13.4585 C.3     1  UNL1        0.0897
     31 C          66.2126   92.4626   12.7351 C.3     1  UNL1        0.0861
     32 N          67.3461   93.0658   13.5105 N.3     1  UNL1       -0.2963
     33 H          67.3862   94.0522   13.2542 H       1  UNL1        0.1233
@<TRIPOS>BOND
     1    27    26    1
     2    27    28    1
     3    28    29    1
     4    29    25    1
     5    25    19    1
     6    19    20   ar
     7    20    21   ar
     8    21    22   ar
     9    22    18    1
    10    18     1    1
    11     1     2    2
    12     1     3   am
    13     3     4    1
    14     4     5    1
    15     5     6    1
    16     6     9    1
    17     9    11    1
    18    11    12   ar
    19    12    13   ar
    20    13    14   ar
    21    14    15   ar
    22    15    16    1
    23    15    17   ar
    24     6     7    1
    25     7     8    1
    26    22    23   ar
    27    23    24   ar
    28    29    30    1
    29    30    31    1
    30    31    32    1
    31    32    27    1
    32    24    19   ar
    33     8     3    1
    34    17    11   ar
    35     9    10    1
    36    32    33    1
@<TRIPOS>MOLECULE
*****
 33 36 0 0 0
SMALL
GASTEIGER

@<TRIPOS>ATOM
      1 C          63.8207   84.0817   14.8441 C.2     1  UNL1        0.2301
      2 O          64.6862   82.9122   15.2089 O.2     1  UNL1       -0.2745
      3 N          63.4803   84.3435   13.4069 N.am    1  UNL1       -0.2792
      4 C          64.0055   83.4357   12.3344 C.3     1  UNL1        0.0951
      5 C          63.6651   83.6975   10.8972 C.3     1  UNL1        0.0410
      6 C          62.7997   84.8670   10.5324 C.3     1  UNL1        0.0724
      7 C          62.2745   85.7748   11.6049 C.3     1  UNL1        0.0410
      8 C          62.6148   85.5131   13.0421 C.3     1  UNL1        0.0951
      9 N          62.4593   85.1288    9.0952 N.pl3   1  UNL1       -0.3339
     10 H          62.9090   84.6200    8.3823 H       1  UNL1        0.1468
     11 C          61.4339   86.1657    8.7441 C.ar    1  UNL1        0.0469
     12 C          60.3002   85.8184    7.8255 C.ar    1  UNL1        0.0144
     13 C          59.2747   86.8553    7.4744 C.ar    1  UNL1        0.0036
     14 C          59.3831   88.2396    8.0419 C.ar    1  UNL1        0.0297
     15 C          60.5169   88.5869    8.9605 C.ar    1  UNL1        0.1414
     16 F          60.6253   89.9712    9.5280 F       1  UNL1       -0.2041
     17 C          61.5423   87.5500    9.3116 C.ar    1  UNL1        0.0439
     18 C          63.2955   84.9895   15.9166 C.3     1  UNL1        0.1116
     19 C          63.9195   89.4352   15.6059 C.ar    1  UNL1       -0.0062
     20 C          64.5297   88.5192   14.5868 C.ar    1  UNL1       -0.0032
     21 C          64.3217   87.0373   14.6903 C.ar    1  UNL1       -0.0041
     22 C          63.5035   86.4714   15.8130 C.ar    1  UNL1       -0.0131
     23 C          62.8933   87.3874   16.8321 C.ar    1  UNL1       -0.0041
     24 C          63.1013   88.8693   16.7285 C.ar    1  UNL1       -0.0032
     25 C          64.1275   90.9171   15.5024 C.3     1  UNL1        0.0992
     26 C          65.2736   92.7798   10.7889 C.3     1  UNL1        0.0186
     27 C          65.7027   92.3991   12.1748 C.3     1  UNL1        0.0703
     28 C          64.7006   91.8484   13.1456 C.3     1  UNL1        0.0882
     29 N          65.1297   91.4677   14.5316 N.3     1  UNL1       -0.2666
     30 C          66.5610   91.6377   14.9468 C.3     1  UNL1        0.0897
     31 C          67.5632   92.1883   13.9760 C.3     1  UNL1        0.0861
     32 N          67.1341   92.5690   12.5900 N.3     1  UNL1       -0.2963
     33 H          67.6957   92.0134   11.9448 H       1  UNL1        0.1233
@<TRIPOS>BOND
     1    27    26    1
     2    27    28    1
     3    28    29    1
     4    29    25    1
     5    25    19    1
     6    19    20   ar
     7    20    21   ar
     8    21    22   ar
     9    22    18    1
    10    18     1    1
    11     1     2    2
    12     1     3   am
    13     3     4    1
    14     4     5    1
    15     5     6    1
    16     6     9    1
    17     9    11    1
    18    11    12   ar
    19    12    13   ar
    20    13    14   ar
    21    14    15   ar
    22    15    16    1
    23    15    17   ar
    24     6     7    1
    25     7     8    1
    26    22    23   ar
    27    23    24   ar
    28    29    30    1
    29    30    31    1
    30    31    32    1
    31    32    27    1
    32    24    19   ar
    33     8     3    1
    34    17    11   ar
    35     9    10    1
    36    32    33    1
@<TRIPOS>MOLECULE
*****
 33 36 0 0 0
SMALL
GASTEIGER

@<TRIPOS>ATOM
      1 C          63.6891   84.3063   15.3384 C.2     1  UNL1        0.2301
      2 O          63.0320   83.4215   16.3558 O.2     1  UNL1       -0.2745
      3 N          63.6861   85.7946   15.5251 N.am    1  UNL1       -0.2792
      4 C          63.0261   86.3982   16.7292 C.3     1  UNL1        0.0951
      5 C          63.0231   87.8865   16.9159 C.3     1  UNL1        0.0410
      6 C          63.6802   88.7713   15.8984 C.3     1  UNL1        0.0724
      7 C          64.3403   88.1678   14.6942 C.3     1  UNL1        0.0410
      8 C          64.3432   86.6795   14.5075 C.3     1  UNL1        0.0951
      9 N          63.6772   90.2596   16.0851 N.pl3   1  UNL1       -0.3339
     10 H          63.1496   90.6636   16.8116 H       1  UNL1        0.1468
     11 C          64.4780   91.1325   15.1650 C.ar    1  UNL1        0.0469
     12 C          64.2096   91.1121   13.6894 C.ar    1  UNL1        0.0144
     13 C          65.0104   91.9850   12.7692 C.ar    1  UNL1        0.0036
     14 C          66.0797   92.8784   13.3246 C.ar    1  UNL1        0.0297
     15 C          66.3481   92.8988   14.8003 C.ar    1  UNL1        0.1414
     16 F          67.4174   93.7921   15.3558 F       1  UNL1       -0.2041
     17 C          65.5473   92.0259   15.7205 C.ar    1  UNL1        0.0439
     18 C          64.3492   83.7028   14.1341 C.3     1  UNL1        0.1116
     19 C          62.8933   84.7524   10.0075 C.ar    1  UNL1       -0.0062
     20 C          64.0553   83.8192   10.1781 C.ar    1  UNL1       -0.0032
     21 C          64.5406   83.4694   11.5536 C.ar    1  UNL1       -0.0041
     22 C          63.8639   84.0527   12.7586 C.ar    1  UNL1       -0.0131
     23 C          62.7020   84.9858   12.5880 C.ar    1  UNL1       -0.0041
     24 C          62.2167   85.3357   11.2125 C.ar    1  UNL1       -0.0032
     25 C          62.4080   85.1023    8.6320 C.3     1  UNL1        0.0992
     26 C          60.5110   89.8306    9.6540 C.3     1  UNL1        0.0186
     27 C          60.3899   88.5031    8.9662 C.3     1  UNL1        0.0703
     28 C          61.4594   87.4665    9.1430 C.3     1  UNL1        0.0882
     29 N          61.3383   86.1390    8.4552 N.3     1  UNL1       -0.2666
     30 C          60.1475   85.8481    7.5907 C.3     1  UNL1        0.0897
     31 C          59.0780   86.8847    7.4139 C.3     1  UNL1        0.0861
     32 N          59.1991   88.2122    8.1017 N.3     1  UNL1       -0.2963
     33 H          58.3741   88.3140    8.6929 H       1  UNL1        0.1233
@<TRIPOS>BOND
     1    27    26    1
     2    27    28    1
     3    28    29    1
     4    29    25    1
     5    25    19    1
     6    19    20   ar
     7    20    21   ar
     8    21    22   ar
     9    22    18    1
    10    18     1    1
    11     1     2    2
    12     1     3   am
    13     3     4    1
    14     4     5    1
    15     5     6    1
    16     6     9    1
    17     9    11    1
    18    11    12   ar
    19    12    13   ar
    20    13    14   ar
    21    14    15   ar
    22    15    16    1
    23    15    17   ar
    24     6     7    1
    25     7     8    1
    26    22    23   ar
    27    23    24   ar
    28    29    30    1
    29    30    31    1
    30    31    32    1
    31    32    27    1
    32    24    19   ar
    33     8     3    1
    34    17    11   ar
    35     9    10    1
    36    32    33    1
@<TRIPOS>MOLECULE
*****
 33 36 0 0 0
SMALL
GASTEIGER

@<TRIPOS>ATOM
      1 C          62.1079   88.0670   11.7241 C.2     1  UNL1        0.2301
      2 O          62.8344   86.7830   11.9952 O.2     1  UNL1       -0.2745
      3 N          61.2964   88.2196   10.4718 N.am    1  UNL1       -0.2792
      4 C          61.2114   87.0883    9.4906 C.3     1  UNL1        0.0951
      5 C          60.3999   87.2410    8.2384 C.3     1  UNL1        0.0410
      6 C          59.6734   88.5250    7.9673 C.3     1  UNL1        0.0724
      7 C          59.7585   89.6564    8.9485 C.3     1  UNL1        0.0410
      8 C          60.5700   89.5037   10.2008 C.3     1  UNL1        0.0951
      9 N          58.8619   88.6776    6.7150 N.pl3   1  UNL1       -0.3339
     10 H          58.2291   87.9718    6.4495 H       1  UNL1        0.1468
     11 C          59.0147   89.9057    5.8674 C.ar    1  UNL1        0.0469
     12 C          57.8247   90.7734    5.5831 C.ar    1  UNL1        0.0144
     13 C          57.9774   92.0015    4.7354 C.ar    1  UNL1        0.0036
     14 C          59.3201   92.3618    4.1721 C.ar    1  UNL1        0.0297
     15 C          60.5101   91.4940    4.4565 C.ar    1  UNL1        0.1414
     16 F          61.8528   91.8543    3.8932 F       1  UNL1       -0.2041
     17 C          60.3574   90.2660    5.3041 C.ar    1  UNL1        0.0439
     18 C          62.1930   89.1984   12.7053 C.3     1  UNL1        0.1116
     19 C          65.4741   92.2557   12.3352 C.ar    1  UNL1       -0.0062
     20 C          65.2483   91.5522   13.6407 C.ar    1  UNL1       -0.0032
     21 C          64.1545   90.5331   13.7641 C.ar    1  UNL1       -0.0041
     22 C          63.2867   90.2175   12.5819 C.ar    1  UNL1       -0.0131
     23 C          63.5126   90.9210   11.2766 C.ar    1  UNL1       -0.0041
     24 C          64.6063   91.9401   11.1532 C.ar    1  UNL1       -0.0032
     25 C          66.5679   93.2748   12.2119 C.3     1  UNL1        0.0992
     26 C          66.6371   96.8553    8.4469 C.3     1  UNL1        0.0186
     27 C          67.0585   95.5154    8.9732 C.3     1  UNL1        0.0703
     28 C          66.6025   95.0650   10.3293 C.3     1  UNL1        0.0882
     29 N          67.0239   93.7251   10.8556 N.3     1  UNL1       -0.2666
     30 C          67.9013   92.8355   10.0258 C.3     1  UNL1        0.0897
     31 C          68.3573   93.2858    8.6696 C.3     1  UNL1        0.0861
     32 N          67.9359   94.6257    8.1433 N.3     1  UNL1       -0.2963
     33 H          67.4396   94.4557    7.2686 H       1  UNL1        0.1233
@<TRIPOS>BOND
     1    27    26    1
     2    27    28    1
     3    28    29    1
     4    29    25    1
     5    25    19    1
     6    19    20   ar
     7    20    21   ar
     8    21    22   ar
     9    22    18    1
    10    18     1    1
    11     1     2    2
    12     1     3   am
    13     3     4    1
    14     4     5    1
    15     5     6    1
    16     6     9    1
    17     9    11    1
    18    11    12   ar
    19    12    13   ar
    20    13    14   ar
    21    14    15   ar
    22    15    16    1
    23    15    17   ar
    24     6     7    1
    25     7     8    1
    26    22    23   ar
    27    23    24   ar
    28    29    30    1
    29    30    31    1
    30    31    32    1
    31    32    27    1
    32    24    19   ar
    33     8     3    1
    34    17    11   ar
    35     9    10    1
    36    32    33    1
@<TRIPOS>MOLECULE
*****
 33 36 0 0 0
SMALL
GASTEIGER

@<TRIPOS>ATOM
      1 C          60.8082   88.6465    9.4699 C.2     1  UNL1        0.2301
      2 O          60.1277   88.9774    8.1748 O.2     1  UNL1       -0.2745
      3 N          61.5201   87.3359    9.6297 N.am    1  UNL1       -0.2792
      4 C          61.5515   86.3562    8.4943 C.3     1  UNL1        0.0951
      5 C          62.2634   85.0456    8.6540 C.3     1  UNL1        0.0410
      6 C          62.9438   84.7147    9.9492 C.3     1  UNL1        0.0724
      7 C          62.9124   85.6944   11.0846 C.3     1  UNL1        0.0410
      8 C          62.2006   87.0050   10.9249 C.3     1  UNL1        0.0951
      9 N          63.6557   83.4040   10.1089 N.pl3   1  UNL1       -0.3339
     10 H          64.2300   83.0643    9.3850 H       1  UNL1        0.1468
     11 C          63.4926   82.6110   11.3716 C.ar    1  UNL1        0.0469
     12 C          62.8453   81.2586   11.3295 C.ar    1  UNL1        0.0144
     13 C          62.6822   80.4654   12.5922 C.ar    1  UNL1        0.0036
     14 C          63.1664   81.0248   13.8970 C.ar    1  UNL1        0.0297
     15 C          63.8138   82.3773   13.9391 C.ar    1  UNL1        0.1414
     16 F          64.2980   82.9367   15.2440 F       1  UNL1       -0.2041
     17 C          63.9769   83.1704   12.6764 C.ar    1  UNL1        0.0439
     18 C          60.7768   89.6262   10.6054 C.3     1  UNL1        0.1116
     19 C          64.5541   91.7125   11.8820 C.ar    1  UNL1       -0.0062
     20 C          63.7896   90.8770   12.8657 C.ar    1  UNL1       -0.0032
     21 C          62.5305   90.1816   12.4402 C.ar    1  UNL1       -0.0041
     22 C          62.0359   90.3217   11.0309 C.ar    1  UNL1       -0.0131
     23 C          62.8004   91.1571   10.0473 C.ar    1  UNL1       -0.0041
     24 C          64.0595   91.8525   10.4729 C.ar    1  UNL1       -0.0032
     25 C          65.8132   92.4079   12.3075 C.3     1  UNL1        0.0992
     26 C          69.0002   94.0298   16.0775 C.3     1  UNL1        0.0186
     27 C          67.7085   93.3978   15.6509 C.3     1  UNL1        0.0703
     28 C          67.4067   93.2188   14.1926 C.3     1  UNL1        0.0882
     29 N          66.1149   92.5868   13.7660 N.3     1  UNL1       -0.2666
     30 C          65.1250   92.1337   14.7978 C.3     1  UNL1        0.0897
     31 C          65.4268   92.3126   16.2562 C.3     1  UNL1        0.0861
     32 N          66.7185   92.9446   16.6827 N.3     1  UNL1       -0.2963
     33 H          67.1984   92.2647   17.2725 H       1  UNL1        0.1233
@<TRIPOS>BOND
     1    27    26    1
     2    27    28    1
     3    28    29    1
     4    29    25    1
     5    25    19    1
     6    19    20   ar
     7    20    21   ar
     8    21    22   ar
     9    22    18    1
    10    18     1    1
    11     1     2    2
    12     1     3   am
    13     3     4    1
    14     4     5    1
    15     5     6    1
    16     6     9    1
    17     9    11    1
    18    11    12   ar
    19    12    13   ar
    20    13    14   ar
    21    14    15   ar
    22    15    16    1
    23    15    17   ar
    24     6     7    1
    25     7     8    1
    26    22    23   ar
    27    23    24   ar
    28    29    30    1
    29    30    31    1
    30    31    32    1
    31    32    27    1
    32    24    19   ar
    33     8     3    1
    34    17    11   ar
    35     9    10    1
    36    32    33    1
