@<TRIPOS>MOLECULE
*****
 56 61 0 0 0
SMALL
GASTEIGER

@<TRIPOS>ATOM
      1 C          62.5445   89.8998   13.2404 C.3     1  UNL1        0.1269
      2 O          61.7421   89.4535   14.4265 O.3     1  UNL1       -0.3830
      3 H          61.4820   88.5262   14.3106 H       1  UNL1        0.2104
      4 C          63.0694   91.3034   13.1752 C.3     1  UNL1        0.0401
      5 C          64.5461   91.5482   13.0784 C.3     1  UNL1        0.0833
      6 O          64.8048   91.9899   10.5312 O.2     1  UNL1       -0.2751
      7 C          65.0978   92.3711   11.9521 C.2     1  UNL1        0.2226
      8 N          65.9424   93.5752   12.2467 N.am    1  UNL1       -0.2999
      9 H          66.1346   93.8254   13.1792 H       1  UNL1        0.1498
     10 C          66.4940   94.3981   11.1204 C.3     1  UNL1        0.1278
     11 C          67.3227   93.7480   10.0524 C.ar    1  UNL1        0.0320
     12 C          67.5997   92.2750   10.1106 C.ar    1  UNL1        0.0004
     13 C          68.4283   91.6249    9.0425 C.ar    1  UNL1       -0.0001
     14 C          68.9799   92.4478    7.9163 C.ar    1  UNL1        0.0031
     15 C          68.7029   93.9208    7.8581 C.ar    1  UNL1        0.0366
     16 C          67.8743   94.5709    8.9262 C.ar    1  UNL1        0.1362
     17 O          67.5973   96.0440    8.8679 O.3     1  UNL1       -0.4730
     18 C          66.7687   96.6941    9.9360 C.3     1  UNL1        0.2364
     19 C          66.2170   95.8711   11.0623 C.3     1  UNL1        0.1762
     20 O          65.3884   96.5212   12.1303 O.3     1  UNL1       -0.3788
     21 H          65.3065   97.4696   11.9436 H       1  UNL1        0.2106
     22 C          65.4712   90.9700   14.1079 C.3     1  UNL1        0.0371
     23 C          66.6638   91.7542   14.5694 C.ar    1  UNL1       -0.0025
     24 C          66.5648   92.6215   15.7892 C.ar    1  UNL1       -0.0011
     25 C          67.7574   93.4057   16.2507 C.ar    1  UNL1        0.0204
     26 C          69.0489   93.3224   15.4923 C.ar    1  UNL1        0.0989
     27 N          69.1479   92.4551   14.2725 N.ar    1  UNL1       -0.2426
     28 C          67.9553   91.6710   13.8111 C.ar    1  UNL1        0.0946
     29 C          62.8221   88.9424   12.1195 C.3     1  UNL1        0.1021
     30 N          61.9079   88.8934   10.9313 N.3     1  UNL1       -0.2621
     31 C          61.2941   90.1568   10.4047 C.3     1  UNL1        0.0901
     32 C          60.3799   90.1078    9.2165 C.3     1  UNL1        0.0900
     33 N          60.0795   88.7955    8.5548 N.3     1  UNL1       -0.2635
     34 C          60.6934   87.5322    9.0814 C.3     1  UNL1        0.0980
     35 C          61.6076   87.5812   10.2696 C.3     1  UNL1        0.1510
     36 C          62.2214   86.3179   10.7962 C.2     1  UNL1        0.2386
     37 O          62.9182   85.3757    9.8599 O.2     1  UNL1       -0.2736
     38 N          62.1385   85.9969   12.2591 N.am    1  UNL1       -0.2961
     39 H          61.6812   86.6153   12.8737 H       1  UNL1        0.1497
     40 C          62.7524   84.7336   12.7857 C.3     1  UNL1        0.1939
     41 C          63.9902   84.7967   13.6306 C.3     1  UNL1        0.4154
     42 F          65.2280   84.8599   14.4755 F       1  UNL1       -0.1682
     43 F          64.0409   83.2981   13.6684 F       1  UNL1       -0.1682
     44 F          63.9395   86.2953   13.5929 F       1  UNL1       -0.1682
     45 C          59.1654   88.7465    7.3666 C.3     1  UNL1        0.1377
     46 C          59.2467   89.8115    6.3134 C.ar    1  UNL1        0.1390
     47 C          58.1196   90.6916    5.8605 C.ar    1  UNL1        0.0375
     48 C          58.6457   91.6073    4.7953 C.ar    1  UNL1        0.0403
     49 C          60.0981   91.2932    4.5899 C.ar    1  UNL1        0.1449
     50 O          60.4695   90.1833    5.5281 O.2     1  UNL1       -0.4564
     51 C          61.0175   91.9701    3.6170 C.ar    1  UNL1        0.0345
     52 C          60.5123   93.0994    2.7688 C.ar    1  UNL1        0.0030
     53 C          61.4317   93.7763    1.7960 C.ar    1  UNL1        0.0001
     54 C          62.8563   93.3238    1.6713 C.ar    1  UNL1        0.0000
     55 C          63.3617   92.1945    2.5195 C.ar    1  UNL1        0.0001
     56 C          62.4422   91.5177    3.4923 C.ar    1  UNL1        0.0030
@<TRIPOS>BOND
     1     6     7    2
     2     7     8   am
     3    10     8    1
     4    10    11    1
     5    11    12   ar
     6    12    13   ar
     7    13    14   ar
     8    14    15   ar
     9    15    16   ar
    10    16    17    1
    11    17    18    1
    12    18    19    1
    13    19    20    1
    14     7     5    1
    15     5    22    1
    16    22    23    1
    17    23    24   ar
    18    24    25   ar
    19    25    26   ar
    20    26    27   ar
    21    27    28   ar
    22     5     4    1
    23     4     1    1
    24     1     2    1
    25     1    29    1
    26    29    30    1
    27    30    31    1
    28    31    32    1
    29    32    33    1
    30    33    45    1
    31    45    46    1
    32    46    47   ar
    33    47    48   ar
    34    48    49   ar
    35    49    51    1
    36    51    52   ar
    37    52    53   ar
    38    53    54   ar
    39    54    55   ar
    40    55    56   ar
    41    49    50   ar
    42    33    34    1
    43    34    35    1
    44    35    36    1
    45    36    37    2
    46    36    38   am
    47    38    40    1
    48    40    41    1
    49    41    42    1
    50    41    43    1
    51    41    44    1
    52    19    10    1
    53    28    23   ar
    54    35    30    1
    55    16    11   ar
    56    50    46   ar
    57    56    51   ar
    58     8     9    1
    59    20    21    1
    60     2     3    1
    61    38    39    1
@<TRIPOS>MOLECULE
*****
 56 61 0 0 0
SMALL
GASTEIGER

@<TRIPOS>ATOM
      1 C          62.6513   85.2391   10.2198 C.3     1  UNL1        0.1269
      2 O          63.5062   84.7509    9.0880 O.3     1  UNL1       -0.3830
      3 H          63.7973   85.5063    8.5536 H       1  UNL1        0.2104
      4 C          62.0721   84.2608   11.1983 C.3     1  UNL1        0.0401
      5 C          62.8272   83.9122   12.4465 C.3     1  UNL1        0.0833
      6 O          61.3084   84.5389   14.4590 O.2     1  UNL1       -0.2751
      7 C          62.5962   84.6937   13.7058 C.2     1  UNL1        0.2226
      8 N          63.6532   85.6301   14.2119 N.am    1  UNL1       -0.2999
      9 H          64.4985   85.7316   13.7176 H       1  UNL1        0.1498
     10 C          63.4223   86.4116   15.4712 C.3     1  UNL1        0.1278
     11 C          63.6351   87.8964   15.4821 C.ar    1  UNL1        0.0320
     12 C          64.0789   88.5996   14.2337 C.ar    1  UNL1        0.0004
     13 C          64.2917   90.0844   14.2446 C.ar    1  UNL1       -0.0001
     14 C          64.0608   90.8660   15.5039 C.ar    1  UNL1        0.0031
     15 C          63.6170   90.1627   16.7523 C.ar    1  UNL1        0.0366
     16 C          63.4041   88.6779   16.7414 C.ar    1  UNL1        0.1362
     17 O          62.9603   87.9747   17.9898 O.3     1  UNL1       -0.4730
     18 C          62.7475   86.4899   17.9789 C.3     1  UNL1        0.2364
     19 C          62.9785   85.7084   16.7196 C.3     1  UNL1        0.1762
     20 O          62.7656   84.2236   16.7087 O.3     1  UNL1       -0.3788
     21 H          62.4822   83.9311   17.5890 H       1  UNL1        0.2106
     22 C          63.8134   82.7820   12.4355 C.3     1  UNL1        0.0371
     23 C          63.4161   81.4452   11.8832 C.ar    1  UNL1       -0.0025
     24 C          63.5047   81.1866   10.4084 C.ar    1  UNL1       -0.0011
     25 C          63.1073   79.8497    9.8561 C.ar    1  UNL1        0.0204
     26 C          62.6213   78.7715   10.7787 C.ar    1  UNL1        0.0989
     27 N          62.5326   79.0301   12.2536 N.ar    1  UNL1       -0.2426
     28 C          62.9300   80.3669   12.8059 C.ar    1  UNL1        0.0946
     29 C          62.3757   86.7056   10.3731 C.3     1  UNL1        0.1021
     30 N          61.3787   87.3790    9.4773 N.3     1  UNL1       -0.2621
     31 C          60.6526   86.5846    8.4323 C.3     1  UNL1        0.0901
     32 C          59.6556   87.2580    7.5365 C.3     1  UNL1        0.0900
     33 N          59.3847   88.7258    7.6856 N.3     1  UNL1       -0.2635
     34 C          60.1107   89.5201    8.7305 C.3     1  UNL1        0.0980
     35 C          61.1077   88.8467    9.6263 C.3     1  UNL1        0.1510
     36 C          61.8338   89.6411   10.6712 C.2     1  UNL1        0.2386
     37 O          61.3460   89.6373   12.0897 O.2     1  UNL1       -0.2736
     38 N          63.0476   90.4393   10.2976 N.am    1  UNL1       -0.2961
     39 H          63.3677   90.4418    9.3666 H       1  UNL1        0.1497
     40 C          63.7736   91.2337   11.3425 C.3     1  UNL1        0.1939
     41 C          64.7554   92.2913   10.9330 C.3     1  UNL1        0.4154
     42 F          65.7370   93.3490   10.5235 F       1  UNL1       -0.1682
     43 F          65.5849   91.9911   12.1461 F       1  UNL1       -0.1682
     44 F          63.9258   92.5916    9.7199 F       1  UNL1       -0.1682
     45 C          58.3877   89.3992    6.7897 C.3     1  UNL1        0.1377
     46 C          58.8508   90.3911    5.7642 C.ar    1  UNL1        0.1390
     47 C          58.0284   91.4980    5.1738 C.ar    1  UNL1        0.0375
     48 C          58.8869   92.2413    4.1937 C.ar    1  UNL1        0.0403
     49 C          60.2399   91.5938    4.1784 C.ar    1  UNL1        0.1449
     50 O          60.2176   90.4503    5.1490 O.2     1  UNL1       -0.4564
     51 C          61.4098   92.0157    3.3397 C.ar    1  UNL1        0.0345
     52 C          62.7153   91.2856    3.4521 C.ar    1  UNL1        0.0030
     53 C          63.8852   91.7075    2.6134 C.ar    1  UNL1        0.0001
     54 C          63.7495   92.8594    1.6624 C.ar    1  UNL1        0.0000
     55 C          62.4440   93.5896    1.5500 C.ar    1  UNL1        0.0001
     56 C          61.2742   93.1676    2.3886 C.ar    1  UNL1        0.0030
@<TRIPOS>BOND
     1     6     7    2
     2     7     8   am
     3    10     8    1
     4    10    11    1
     5    11    12   ar
     6    12    13   ar
     7    13    14   ar
     8    14    15   ar
     9    15    16   ar
    10    16    17    1
    11    17    18    1
    12    18    19    1
    13    19    20    1
    14     7     5    1
    15     5    22    1
    16    22    23    1
    17    23    24   ar
    18    24    25   ar
    19    25    26   ar
    20    26    27   ar
    21    27    28   ar
    22     5     4    1
    23     4     1    1
    24     1     2    1
    25     1    29    1
    26    29    30    1
    27    30    31    1
    28    31    32    1
    29    32    33    1
    30    33    45    1
    31    45    46    1
    32    46    47   ar
    33    47    48   ar
    34    48    49   ar
    35    49    51    1
    36    51    52   ar
    37    52    53   ar
    38    53    54   ar
    39    54    55   ar
    40    55    56   ar
    41    49    50   ar
    42    33    34    1
    43    34    35    1
    44    35    36    1
    45    36    37    2
    46    36    38   am
    47    38    40    1
    48    40    41    1
    49    41    42    1
    50    41    43    1
    51    41    44    1
    52    19    10    1
    53    28    23   ar
    54    35    30    1
    55    16    11   ar
    56    50    46   ar
    57    56    51   ar
    58     8     9    1
    59    20    21    1
    60     2     3    1
    61    38    39    1
@<TRIPOS>MOLECULE
*****
 56 61 0 0 0
SMALL
GASTEIGER

@<TRIPOS>ATOM
      1 C          62.5642   85.8585   11.5392 C.3     1  UNL1        0.1269
      2 O          62.3811   84.4600   11.0288 O.3     1  UNL1       -0.3830
      3 H          62.5018   84.4486   10.0664 H       1  UNL1        0.2104
      4 C          62.4281   86.1457   13.0051 C.3     1  UNL1        0.0401
      5 C          63.6536   86.2928   13.8575 C.3     1  UNL1        0.0833
      6 O          63.7249   87.3582   16.2260 O.2     1  UNL1       -0.2751
      7 C          63.8164   87.4981   14.7354 C.2     1  UNL1        0.2226
      8 N          64.0708   88.8434   14.1226 N.am    1  UNL1       -0.2999
      9 H          64.1309   88.9353   13.1442 H       1  UNL1        0.1498
     10 C          64.2336   90.0488   15.0004 C.3     1  UNL1        0.1278
     11 C          65.4386   90.9292   14.8496 C.ar    1  UNL1        0.0320
     12 C          66.4809   90.6043   13.8210 C.ar    1  UNL1        0.0004
     13 C          67.6859   91.4847   13.6702 C.ar    1  UNL1       -0.0001
     14 C          67.8487   92.6900   14.5480 C.ar    1  UNL1        0.0031
     15 C          66.8065   93.0149   15.5766 C.ar    1  UNL1        0.0366
     16 C          65.6014   92.1345   15.7274 C.ar    1  UNL1        0.1362
     17 O          64.5591   92.4595   16.7561 O.3     1  UNL1       -0.4730
     18 C          63.3541   91.5791   16.9069 C.3     1  UNL1        0.2364
     19 C          63.1913   90.3737   16.0290 C.3     1  UNL1        0.1762
     20 O          61.9863   89.4932   16.1798 O.3     1  UNL1       -0.3788
     21 H          61.4170   89.8421   16.8834 H       1  UNL1        0.2106
     22 C          64.7164   85.2345   13.8319 C.3     1  UNL1        0.0371
     23 C          64.3335   83.7901   13.7016 C.ar    1  UNL1       -0.0025
     24 C          64.7497   83.0102   12.4897 C.ar    1  UNL1       -0.0011
     25 C          64.3668   81.5658   12.3595 C.ar    1  UNL1        0.0204
     26 C          63.5677   80.9012   13.4410 C.ar    1  UNL1        0.0989
     27 N          63.1516   81.6810   14.6529 N.ar    1  UNL1       -0.2426
     28 C          63.5344   83.1254   14.7832 C.ar    1  UNL1        0.0946
     29 C          62.8833   86.9699   10.5836 C.3     1  UNL1        0.1021
     30 N          61.8117   87.5226    9.6913 N.3     1  UNL1       -0.2621
     31 C          61.1649   86.6431    8.6625 C.3     1  UNL1        0.0901
     32 C          60.0933   87.1958    7.7702 C.3     1  UNL1        0.0900
     33 N          59.6685   88.6280    7.9067 N.3     1  UNL1       -0.2635
     34 C          60.3153   89.5074    8.9354 C.3     1  UNL1        0.0980
     35 C          61.3869   88.9547    9.8277 C.3     1  UNL1        0.1510
     36 C          62.0336   89.8340   10.8565 C.2     1  UNL1        0.2386
     37 O          61.6063   89.7486   12.2918 O.2     1  UNL1       -0.2736
     38 N          63.1078   90.7989   10.4499 N.am    1  UNL1       -0.2961
     39 H          63.3883   90.8550    9.5079 H       1  UNL1        0.1497
     40 C          63.7546   91.6783   11.4787 C.3     1  UNL1        0.1939
     41 C          64.9986   92.4433   11.1362 C.3     1  UNL1        0.4154
     42 F          66.2425   93.2083   10.7937 F       1  UNL1       -0.1682
     43 F          64.9936   93.0631   12.5021 F       1  UNL1       -0.1682
     44 F          65.0037   91.8236    9.7703 F       1  UNL1       -0.1682
     45 C          58.5969   89.1807    7.0144 C.3     1  UNL1        0.1377
     46 C          58.9426   90.2007    5.9703 C.ar    1  UNL1        0.1390
     47 C          58.0155   91.2386    5.4106 C.ar    1  UNL1        0.0375
     48 C          58.7759   92.0413    4.3970 C.ar    1  UNL1        0.0403
     49 C          60.1731   91.4994    4.3302 C.ar    1  UNL1        0.1449
     50 O          60.2761   90.3619    5.3025 O.2     1  UNL1       -0.4564
     51 C          61.2740   92.0062    3.4463 C.ar    1  UNL1        0.0345
     52 C          61.0264   93.1692    2.5319 C.ar    1  UNL1        0.0030
     53 C          62.1273   93.6759    1.6479 C.ar    1  UNL1        0.0001
     54 C          63.4757   93.0196    1.6784 C.ar    1  UNL1        0.0000
     55 C          63.7233   91.8566    2.5929 C.ar    1  UNL1        0.0001
     56 C          62.6225   91.3499    3.4767 C.ar    1  UNL1        0.0030
@<TRIPOS>BOND
     1     6     7    2
     2     7     8   am
     3    10     8    1
     4    10    11    1
     5    11    12   ar
     6    12    13   ar
     7    13    14   ar
     8    14    15   ar
     9    15    16   ar
    10    16    17    1
    11    17    18    1
    12    18    19    1
    13    19    20    1
    14     7     5    1
    15     5    22    1
    16    22    23    1
    17    23    24   ar
    18    24    25   ar
    19    25    26   ar
    20    26    27   ar
    21    27    28   ar
    22     5     4    1
    23     4     1    1
    24     1     2    1
    25     1    29    1
    26    29    30    1
    27    30    31    1
    28    31    32    1
    29    32    33    1
    30    33    45    1
    31    45    46    1
    32    46    47   ar
    33    47    48   ar
    34    48    49   ar
    35    49    51    1
    36    51    52   ar
    37    52    53   ar
    38    53    54   ar
    39    54    55   ar
    40    55    56   ar
    41    49    50   ar
    42    33    34    1
    43    34    35    1
    44    35    36    1
    45    36    37    2
    46    36    38   am
    47    38    40    1
    48    40    41    1
    49    41    42    1
    50    41    43    1
    51    41    44    1
    52    19    10    1
    53    28    23   ar
    54    35    30    1
    55    16    11   ar
    56    50    46   ar
    57    56    51   ar
    58     8     9    1
    59    20    21    1
    60     2     3    1
    61    38    39    1
@<TRIPOS>MOLECULE
*****
 56 61 0 0 0
SMALL
GASTEIGER

@<TRIPOS>ATOM
      1 C          63.7728   90.8449   11.8952 C.3     1  UNL1        0.1269
      2 O          64.1726   91.5681   10.6433 O.3     1  UNL1       -0.3830
      3 H          63.7614   91.1389    9.8767 H       1  UNL1        0.2104
      4 C          64.2793   91.3143   13.2268 C.3     1  UNL1        0.0401
      5 C          64.9165   90.3401   14.1727 C.3     1  UNL1        0.0833
      6 O          62.6378   89.5399   15.1303 O.2     1  UNL1       -0.2751
      7 C          64.0842   89.2796   14.8305 C.2     1  UNL1        0.2226
      8 N          64.6985   87.9588   15.1885 N.am    1  UNL1       -0.2999
      9 H          65.6479   87.7880   14.9917 H       1  UNL1        0.1498
     10 C          63.8663   86.8983   15.8463 C.3     1  UNL1        0.1278
     11 C          63.8429   85.5076   15.2848 C.ar    1  UNL1        0.0320
     12 C          64.6518   85.1773   14.0655 C.ar    1  UNL1        0.0004
     13 C          64.6284   83.7865   13.5041 C.ar    1  UNL1       -0.0001
     14 C          63.7962   82.7260   14.1618 C.ar    1  UNL1        0.0031
     15 C          62.9874   83.0563   15.3811 C.ar    1  UNL1        0.0366
     16 C          63.0107   84.4471   15.9426 C.ar    1  UNL1        0.1362
     17 O          62.2018   84.7773   17.1619 O.3     1  UNL1       -0.4730
     18 C          62.2251   86.1680   17.7234 C.3     1  UNL1        0.2364
     19 C          63.0574   87.2286   17.0655 C.3     1  UNL1        0.1762
     20 O          63.0808   88.6193   17.6270 O.3     1  UNL1       -0.3788
     21 H          62.5081   88.6621   18.4088 H       1  UNL1        0.2106
     22 C          66.3861   90.4264   14.4608 C.3     1  UNL1        0.0371
     23 C          67.0097   91.7507   14.7881 C.ar    1  UNL1       -0.0025
     24 C          68.0734   91.8388   15.8421 C.ar    1  UNL1       -0.0011
     25 C          68.6970   93.1633   16.1693 C.ar    1  UNL1        0.0204
     26 C          68.2570   94.3995   15.4426 C.ar    1  UNL1        0.0989
     27 N          67.1933   94.3114   14.3887 N.ar    1  UNL1       -0.2426
     28 C          66.5697   92.9870   14.0614 C.ar    1  UNL1        0.0946
     29 C          62.8665   89.6523   11.8155 C.3     1  UNL1        0.1021
     30 N          61.9538   89.4812   10.6374 N.3     1  UNL1       -0.2621
     31 C          61.4153   90.6863    9.9247 C.3     1  UNL1        0.0901
     32 C          60.5026   90.5153    8.7467 C.3     1  UNL1        0.0900
     33 N          60.1285   89.1392    8.2814 N.3     1  UNL1       -0.2635
     34 C          60.6670   87.9342    8.9941 C.3     1  UNL1        0.0980
     35 C          61.5797   88.1052   10.1721 C.3     1  UNL1        0.1510
     36 C          62.1182   86.9003   10.8848 C.2     1  UNL1        0.2386
     37 O          62.8019   87.0564   12.2108 O.2     1  UNL1       -0.2736
     38 N          61.9730   85.5390   10.2715 N.am    1  UNL1       -0.2961
     39 H          61.5243   85.4365    9.4013 H       1  UNL1        0.1497
     40 C          62.5116   84.3340   10.9842 C.3     1  UNL1        0.1939
     41 C          63.4924   83.4316   10.2959 C.3     1  UNL1        0.4154
     42 F          64.4731   82.5292    9.6077 F       1  UNL1       -0.1682
     43 F          63.9700   84.5850    9.4643 F       1  UNL1       -0.1682
     44 F          63.0147   82.2783   11.1275 F       1  UNL1       -0.1682
     45 C          59.2158   88.9682    7.1033 C.3     1  UNL1        0.1377
     46 C          59.1503   90.0293    6.0451 C.ar    1  UNL1        0.1390
     47 C          57.9143   90.7502    5.5948 C.ar    1  UNL1        0.0375
     48 C          58.3093   91.7222    4.5228 C.ar    1  UNL1        0.0403
     49 C          59.7894   91.6020    4.3106 C.ar    1  UNL1        0.1449
     50 O          60.3091   90.5557    5.2514 O.2     1  UNL1       -0.4564
     51 C          60.6063   92.3898    3.3297 C.ar    1  UNL1        0.0345
     52 C          59.9758   93.5110    2.5582 C.ar    1  UNL1        0.0030
     53 C          60.7927   94.2988    1.5773 C.ar    1  UNL1        0.0001
     54 C          62.2401   93.9653    1.3680 C.ar    1  UNL1        0.0000
     55 C          62.8706   92.8440    2.1396 C.ar    1  UNL1        0.0001
     56 C          62.0537   92.0564    3.1204 C.ar    1  UNL1        0.0030
@<TRIPOS>BOND
     1     6     7    2
     2     7     8   am
     3    10     8    1
     4    10    11    1
     5    11    12   ar
     6    12    13   ar
     7    13    14   ar
     8    14    15   ar
     9    15    16   ar
    10    16    17    1
    11    17    18    1
    12    18    19    1
    13    19    20    1
    14     7     5    1
    15     5    22    1
    16    22    23    1
    17    23    24   ar
    18    24    25   ar
    19    25    26   ar
    20    26    27   ar
    21    27    28   ar
    22     5     4    1
    23     4     1    1
    24     1     2    1
    25     1    29    1
    26    29    30    1
    27    30    31    1
    28    31    32    1
    29    32    33    1
    30    33    45    1
    31    45    46    1
    32    46    47   ar
    33    47    48   ar
    34    48    49   ar
    35    49    51    1
    36    51    52   ar
    37    52    53   ar
    38    53    54   ar
    39    54    55   ar
    40    55    56   ar
    41    49    50   ar
    42    33    34    1
    43    34    35    1
    44    35    36    1
    45    36    37    2
    46    36    38   am
    47    38    40    1
    48    40    41    1
    49    41    42    1
    50    41    43    1
    51    41    44    1
    52    19    10    1
    53    28    23   ar
    54    35    30    1
    55    16    11   ar
    56    50    46   ar
    57    56    51   ar
    58     8     9    1
    59    20    21    1
    60     2     3    1
    61    38    39    1
@<TRIPOS>MOLECULE
*****
 56 61 0 0 0
SMALL
GASTEIGER

@<TRIPOS>ATOM
      1 C          62.5628   88.2435   12.1324 C.3     1  UNL1        0.1269
      2 O          61.2060   88.5840   12.6739 O.3     1  UNL1       -0.3830
      3 H          60.5375   88.4372   11.9866 H       1  UNL1        0.2104
      4 C          63.7755   88.3861   13.0037 C.3     1  UNL1        0.0401
      5 C          63.9003   87.5686   14.2550 C.3     1  UNL1        0.0833
      6 O          65.1189   85.3027   14.6164 O.2     1  UNL1       -0.2751
      7 C          63.9086   86.0707   14.1747 C.2     1  UNL1        0.2226
      8 N          62.7066   85.3409   13.6525 N.am    1  UNL1       -0.2999
      9 H          61.9122   85.8451   13.3626 H       1  UNL1        0.1498
     10 C          62.7149   83.8432   13.5721 C.3     1  UNL1        0.1278
     11 C          63.0804   83.1631   12.2861 C.ar    1  UNL1        0.0320
     12 C          63.4375   83.9808   11.0804 C.ar    1  UNL1        0.0004
     13 C          63.8030   83.3008    9.7943 C.ar    1  UNL1       -0.0001
     14 C          63.8113   81.8030    9.7139 C.ar    1  UNL1        0.0031
     15 C          63.4541   80.9853   10.9196 C.ar    1  UNL1        0.0366
     16 C          63.0887   81.6653   12.2057 C.ar    1  UNL1        0.1362
     17 O          62.7316   80.8475   13.4114 O.3     1  UNL1       -0.4730
     18 C          62.3661   81.5275   14.6975 C.3     1  UNL1        0.2364
     19 C          62.3578   83.0254   14.7778 C.3     1  UNL1        0.1762
     20 O          61.9924   83.7055   16.0639 O.3     1  UNL1       -0.3788
     21 H          61.7908   83.0370   16.7372 H       1  UNL1        0.2106
     22 C          64.0167   88.2488   15.5869 C.3     1  UNL1        0.0371
     23 C          64.3632   89.7065   15.6567 C.ar    1  UNL1       -0.0025
     24 C          65.5478   90.2329   14.9020 C.ar    1  UNL1       -0.0011
     25 C          65.8943   91.6907   14.9719 C.ar    1  UNL1        0.0204
     26 C          65.0562   92.6221   15.7965 C.ar    1  UNL1        0.0989
     27 N          63.8716   92.0957   16.5513 N.ar    1  UNL1       -0.2426
     28 C          63.5251   90.6380   16.4814 C.ar    1  UNL1        0.0946
     29 C          62.7069   87.7604   10.7196 C.3     1  UNL1        0.1021
     30 N          61.6685   88.1138    9.6965 N.3     1  UNL1       -0.2621
     31 C          60.9802   87.0298    8.9211 C.3     1  UNL1        0.0901
     32 C          59.9417   87.3832    7.8980 C.3     1  UNL1        0.0900
     33 N          59.5916   88.8207    7.6504 N.3     1  UNL1       -0.2635
     34 C          60.2798   89.9046    8.4258 C.3     1  UNL1        0.0980
     35 C          61.3183   89.5512    9.4489 C.3     1  UNL1        0.1510
     36 C          62.0066   90.6351   10.2243 C.2     1  UNL1        0.2386
     37 O          61.4925   91.0322   11.5764 O.2     1  UNL1       -0.2736
     38 N          63.2090   91.3220    9.6477 N.am    1  UNL1       -0.2961
     39 H          63.5465   91.0613    8.7603 H       1  UNL1        0.1497
     40 C          63.8973   92.4059   10.4232 C.3     1  UNL1        0.1939
     41 C          65.2749   92.1772   10.9709 C.3     1  UNL1        0.4154
     42 F          66.6524   91.9485   11.5186 F       1  UNL1       -0.1682
     43 F          65.8416   93.0956    9.9291 F       1  UNL1       -0.1682
     44 F          64.7082   91.2588   12.0126 F       1  UNL1       -0.1682
     45 C          58.5531   89.1741    6.6273 C.3     1  UNL1        0.1377
     46 C          58.8040   90.2922    5.6593 C.ar    1  UNL1        0.1390
     47 C          57.7994   91.3116    5.2101 C.ar    1  UNL1        0.0375
     48 C          58.4779   92.2366    4.2438 C.ar    1  UNL1        0.0403
     49 C          59.9019   91.7890    4.0957 C.ar    1  UNL1        0.1449
     50 O          60.1034   90.5873    4.9705 O.2     1  UNL1       -0.4564
     51 C          60.9418   92.4304    3.2256 C.ar    1  UNL1        0.0345
     52 C          60.5859   93.6204    2.3846 C.ar    1  UNL1        0.0030
     53 C          61.6259   94.2618    1.5144 C.ar    1  UNL1        0.0001
     54 C          63.0216   93.7133    1.4854 C.ar    1  UNL1        0.0000
     55 C          63.3776   92.5233    2.3265 C.ar    1  UNL1        0.0001
     56 C          62.3377   91.8820    3.1965 C.ar    1  UNL1        0.0030
@<TRIPOS>BOND
     1     6     7    2
     2     7     8   am
     3    10     8    1
     4    10    11    1
     5    11    12   ar
     6    12    13   ar
     7    13    14   ar
     8    14    15   ar
     9    15    16   ar
    10    16    17    1
    11    17    18    1
    12    18    19    1
    13    19    20    1
    14     7     5    1
    15     5    22    1
    16    22    23    1
    17    23    24   ar
    18    24    25   ar
    19    25    26   ar
    20    26    27   ar
    21    27    28   ar
    22     5     4    1
    23     4     1    1
    24     1     2    1
    25     1    29    1
    26    29    30    1
    27    30    31    1
    28    31    32    1
    29    32    33    1
    30    33    45    1
    31    45    46    1
    32    46    47   ar
    33    47    48   ar
    34    48    49   ar
    35    49    51    1
    36    51    52   ar
    37    52    53   ar
    38    53    54   ar
    39    54    55   ar
    40    55    56   ar
    41    49    50   ar
    42    33    34    1
    43    34    35    1
    44    35    36    1
    45    36    37    2
    46    36    38   am
    47    38    40    1
    48    40    41    1
    49    41    42    1
    50    41    43    1
    51    41    44    1
    52    19    10    1
    53    28    23   ar
    54    35    30    1
    55    16    11   ar
    56    50    46   ar
    57    56    51   ar
    58     8     9    1
    59    20    21    1
    60     2     3    1
    61    38    39    1
@<TRIPOS>MOLECULE
*****
 56 61 0 0 0
SMALL
GASTEIGER

@<TRIPOS>ATOM
      1 C          63.3524   89.5965   14.6013 C.3     1  UNL1        0.1269
      2 O          62.5376   89.4782   15.8551 O.3     1  UNL1       -0.3830
      3 H          62.4509   88.5430   16.0974 H       1  UNL1        0.2104
      4 C          63.6334   90.9478   14.0141 C.3     1  UNL1        0.0401
      5 C          65.0493   91.3847   13.7811 C.3     1  UNL1        0.0833
      6 O          64.8228   91.8840   11.2416 O.2     1  UNL1       -0.2751
      7 C          65.3872   92.2286   12.5879 C.2     1  UNL1        0.2226
      8 N          66.2895   93.4170   12.7411 N.am    1  UNL1       -0.2999
      9 H          66.6600   93.6431   13.6247 H       1  UNL1        0.1498
     10 C          66.6274   94.2609   11.5479 C.3     1  UNL1        0.1278
     11 C          67.3376   93.6519   10.3754 C.ar    1  UNL1        0.0320
     12 C          67.7099   92.1990   10.3961 C.ar    1  UNL1        0.0004
     13 C          68.4200   91.5900    9.2236 C.ar    1  UNL1       -0.0001
     14 C          68.7579   92.4338    8.0304 C.ar    1  UNL1        0.0031
     15 C          68.3856   93.8867    8.0098 C.ar    1  UNL1        0.0366
     16 C          67.6755   94.4957    9.1823 C.ar    1  UNL1        0.1362
     17 O          67.3032   95.9487    9.1616 O.3     1  UNL1       -0.4730
     18 C          66.5930   96.5577   10.3341 C.3     1  UNL1        0.2364
     19 C          66.2551   95.7138   11.5273 C.3     1  UNL1        0.1762
     20 O          65.5450   96.3228   12.6998 O.3     1  UNL1       -0.3788
     21 H          65.3798   97.2625   12.5253 H       1  UNL1        0.2106
     22 C          66.1274   90.9777   14.7414 C.3     1  UNL1        0.0371
     23 C          67.2866   91.8938   14.9998 C.ar    1  UNL1       -0.0025
     24 C          67.1999   92.9251   16.0856 C.ar    1  UNL1       -0.0011
     25 C          68.3592   93.8414   16.3440 C.ar    1  UNL1        0.0204
     26 C          69.6051   93.7262   15.5167 C.ar    1  UNL1        0.0989
     27 N          69.6918   92.6949   14.4309 N.ar    1  UNL1       -0.2426
     28 C          68.5326   91.7788   14.1725 C.ar    1  UNL1        0.0946
     29 C          63.8863   88.3633   13.9347 C.3     1  UNL1        0.1021
     30 N          63.2609   87.8666   12.6649 N.3     1  UNL1       -0.2621
     31 C          62.8117   88.8428   11.6183 C.3     1  UNL1        0.0901
     32 C          62.1863   88.3462   10.3486 C.3     1  UNL1        0.0900
     33 N          62.0100   86.8733   10.1255 N.3     1  UNL1       -0.2635
     34 C          62.4592   85.8972   11.1721 C.3     1  UNL1        0.0980
     35 C          63.0846   86.3939   12.4418 C.3     1  UNL1        0.1510
     36 C          63.5337   85.4177   13.4885 C.2     1  UNL1        0.2386
     37 O          64.4769   85.8575   14.5687 O.2     1  UNL1       -0.2736
     38 N          63.0397   84.0018   13.4548 N.am    1  UNL1       -0.2961
     39 H          62.4207   83.7131   12.7458 H       1  UNL1        0.1497
     40 C          63.4889   83.0257   14.5014 C.3     1  UNL1        0.1939
     41 C          63.1584   81.5693   14.3599 C.3     1  UNL1        0.4154
     42 F          62.8278   80.1131   14.2185 F       1  UNL1       -0.1682
     43 F          64.5520   81.3001   13.8750 F       1  UNL1       -0.1682
     44 F          61.7647   81.8386   14.8449 F       1  UNL1       -0.1682
     45 C          61.3846   86.3766    8.8558 C.3     1  UNL1        0.1377
     46 C          60.3712   87.2191    8.1394 C.ar    1  UNL1        0.1390
     47 C          58.8854   87.0130    8.1527 C.ar    1  UNL1        0.0375
     48 C          58.2615   88.0821    7.3056 C.ar    1  UNL1        0.0403
     49 C          59.3617   88.9490    6.7686 C.ar    1  UNL1        0.1449
     50 O          60.6655   88.4156    7.2840 O.2     1  UNL1       -0.4564
     51 C          59.1884   90.1401    5.8735 C.ar    1  UNL1        0.0345
     52 C          60.3875   90.7895    5.2487 C.ar    1  UNL1        0.0030
     53 C          60.2143   91.9806    4.3535 C.ar    1  UNL1        0.0001
     54 C          58.8419   92.5222    4.0832 C.ar    1  UNL1        0.0000
     55 C          57.6427   91.8728    4.7081 C.ar    1  UNL1        0.0001
     56 C          57.8160   90.6818    5.6031 C.ar    1  UNL1        0.0030
@<TRIPOS>BOND
     1     6     7    2
     2     7     8   am
     3    10     8    1
     4    10    11    1
     5    11    12   ar
     6    12    13   ar
     7    13    14   ar
     8    14    15   ar
     9    15    16   ar
    10    16    17    1
    11    17    18    1
    12    18    19    1
    13    19    20    1
    14     7     5    1
    15     5    22    1
    16    22    23    1
    17    23    24   ar
    18    24    25   ar
    19    25    26   ar
    20    26    27   ar
    21    27    28   ar
    22     5     4    1
    23     4     1    1
    24     1     2    1
    25     1    29    1
    26    29    30    1
    27    30    31    1
    28    31    32    1
    29    32    33    1
    30    33    45    1
    31    45    46    1
    32    46    47   ar
    33    47    48   ar
    34    48    49   ar
    35    49    51    1
    36    51    52   ar
    37    52    53   ar
    38    53    54   ar
    39    54    55   ar
    40    55    56   ar
    41    49    50   ar
    42    33    34    1
    43    34    35    1
    44    35    36    1
    45    36    37    2
    46    36    38   am
    47    38    40    1
    48    40    41    1
    49    41    42    1
    50    41    43    1
    51    41    44    1
    52    19    10    1
    53    28    23   ar
    54    35    30    1
    55    16    11   ar
    56    50    46   ar
    57    56    51   ar
    58     8     9    1
    59    20    21    1
    60     2     3    1
    61    38    39    1
@<TRIPOS>MOLECULE
*****
 56 61 0 0 0
SMALL
GASTEIGER

@<TRIPOS>ATOM
      1 C          62.2378   86.5456    9.8791 C.3     1  UNL1        0.1269
      2 O          63.1896   87.7043    9.8444 O.3     1  UNL1       -0.3830
      3 H          62.6881   88.5346    9.8348 H       1  UNL1        0.2104
      4 C          62.7657   85.1417    9.8995 C.3     1  UNL1        0.0401
      5 C          63.2217   84.5306   11.1912 C.3     1  UNL1        0.0833
      6 O          61.4283   85.6472   12.7035 O.2     1  UNL1       -0.2751
      7 C          62.8310   85.1576   12.4967 C.2     1  UNL1        0.2226
      8 N          63.8429   85.2949   13.5954 N.am    1  UNL1       -0.2999
      9 H          64.7635   84.9735   13.4597 H       1  UNL1        0.1498
     10 C          63.4522   85.9218   14.9009 C.3     1  UNL1        0.1278
     11 C          63.6525   87.3927   15.1163 C.ar    1  UNL1        0.0320
     12 C          64.2436   88.2367   14.0262 C.ar    1  UNL1        0.0004
     13 C          64.4439   89.7075   14.2415 C.ar    1  UNL1       -0.0001
     14 C          64.0532   90.3344   15.5470 C.ar    1  UNL1        0.0031
     15 C          63.4622   89.4905   16.6371 C.ar    1  UNL1        0.0366
     16 C          63.2618   88.0196   16.4217 C.ar    1  UNL1        0.1362
     17 O          62.6708   87.1756   17.5119 O.3     1  UNL1       -0.4730
     18 C          62.4704   85.7047   17.2965 C.3     1  UNL1        0.2364
     19 C          62.8612   85.0778   15.9910 C.3     1  UNL1        0.1762
     20 O          62.6608   83.6070   15.7756 O.3     1  UNL1       -0.3788
     21 H          62.2721   83.2135   16.5724 H       1  UNL1        0.2106
     22 C          64.0686   83.2926   11.1775 C.3     1  UNL1        0.0371
     23 C          63.6949   82.1189   12.0334 C.ar    1  UNL1       -0.0025
     24 C          62.7884   81.0537   11.4914 C.ar    1  UNL1       -0.0011
     25 C          62.4148   79.8799   12.3474 C.ar    1  UNL1        0.0204
     26 C          62.9477   79.7713   13.7454 C.ar    1  UNL1        0.0989
     27 N          63.8542   80.8364   14.2873 N.ar    1  UNL1       -0.2426
     28 C          64.2278   82.0102   13.4314 C.ar    1  UNL1        0.0946
     29 C          60.7580   86.7907    9.8933 C.3     1  UNL1        0.1021
     30 N          60.1414   87.7167    8.8871 N.3     1  UNL1       -0.2621
     31 C          59.4345   87.1578    7.6879 C.3     1  UNL1        0.0901
     32 C          58.8180   88.0837    6.6817 C.3     1  UNL1        0.0900
     33 N          58.9084   89.5686    6.8746 N.3     1  UNL1       -0.2635
     34 C          59.6154   90.1274    8.0737 C.3     1  UNL1        0.0980
     35 C          60.2319   89.2014    9.0799 C.3     1  UNL1        0.1510
     36 C          60.9388   89.7602   10.2790 C.2     1  UNL1        0.2386
     37 O          60.2983   89.6786   11.6329 O.2     1  UNL1       -0.2736
     38 N          62.2864   90.4008   10.1243 N.am    1  UNL1       -0.2961
     39 H          62.7068   90.4544    9.2357 H       1  UNL1        0.1497
     40 C          62.9933   90.9596   11.3234 C.3     1  UNL1        0.1939
     41 C          64.0774   91.9812   11.1464 C.3     1  UNL1        0.4154
     42 F          65.1613   93.0028   10.9695 F       1  UNL1       -0.1682
     43 F          63.8752   91.9384    9.6607 F       1  UNL1       -0.1682
     44 F          64.2795   92.0240   12.6321 F       1  UNL1       -0.1682
     45 C          58.2919   90.4945    5.8683 C.3     1  UNL1        0.1377
     46 C          59.1636   91.2360    4.8985 C.ar    1  UNL1        0.1390
     47 C          60.6573   91.1378    4.8024 C.ar    1  UNL1        0.0375
     48 C          61.1116   92.0469    3.6991 C.ar    1  UNL1        0.0403
     49 C          59.8985   92.7070    3.1134 C.ar    1  UNL1        0.1449
     50 O          58.6947   92.2058    3.8547 O.2     1  UNL1       -0.4564
     51 C          59.8908   93.6948    1.9846 C.ar    1  UNL1        0.0345
     52 C          60.5536   95.0300    2.1518 C.ar    1  UNL1        0.0030
     53 C          60.5458   96.0178    1.0230 C.ar    1  UNL1        0.0001
     54 C          59.8753   95.6704   -0.2729 C.ar    1  UNL1        0.0000
     55 C          59.2124   94.3352   -0.4402 C.ar    1  UNL1        0.0001
     56 C          59.2202   93.3475    0.6886 C.ar    1  UNL1        0.0030
@<TRIPOS>BOND
     1     6     7    2
     2     7     8   am
     3    10     8    1
     4    10    11    1
     5    11    12   ar
     6    12    13   ar
     7    13    14   ar
     8    14    15   ar
     9    15    16   ar
    10    16    17    1
    11    17    18    1
    12    18    19    1
    13    19    20    1
    14     7     5    1
    15     5    22    1
    16    22    23    1
    17    23    24   ar
    18    24    25   ar
    19    25    26   ar
    20    26    27   ar
    21    27    28   ar
    22     5     4    1
    23     4     1    1
    24     1     2    1
    25     1    29    1
    26    29    30    1
    27    30    31    1
    28    31    32    1
    29    32    33    1
    30    33    45    1
    31    45    46    1
    32    46    47   ar
    33    47    48   ar
    34    48    49   ar
    35    49    51    1
    36    51    52   ar
    37    52    53   ar
    38    53    54   ar
    39    54    55   ar
    40    55    56   ar
    41    49    50   ar
    42    33    34    1
    43    34    35    1
    44    35    36    1
    45    36    37    2
    46    36    38   am
    47    38    40    1
    48    40    41    1
    49    41    42    1
    50    41    43    1
    51    41    44    1
    52    19    10    1
    53    28    23   ar
    54    35    30    1
    55    16    11   ar
    56    50    46   ar
    57    56    51   ar
    58     8     9    1
    59    20    21    1
    60     2     3    1
    61    38    39    1
@<TRIPOS>MOLECULE
*****
 56 61 0 0 0
SMALL
GASTEIGER

@<TRIPOS>ATOM
      1 C          61.8706   90.2748   10.9230 C.3     1  UNL1        0.1269
      2 O          60.6453   91.1309   11.0483 O.3     1  UNL1       -0.3830
      3 H          60.6835   91.6304   11.8789 H       1  UNL1        0.2104
      4 C          62.0539   89.3993    9.7188 C.3     1  UNL1        0.0401
      5 C          60.8567   88.8403    9.0088 C.3     1  UNL1        0.0833
      6 O          59.1651   90.7805    8.6567 O.2     1  UNL1       -0.2751
      7 C          60.0540   89.7133    8.0903 C.2     1  UNL1        0.2226
      8 N          60.1403   89.5191    6.6054 N.am    1  UNL1       -0.2999
      9 H          60.7237   88.8186    6.2337 H       1  UNL1        0.1498
     10 C          59.3377   90.3921    5.6870 C.3     1  UNL1        0.1278
     11 C          60.0286   91.2138    4.6394 C.ar    1  UNL1        0.0320
     12 C          61.5221   91.1626    4.5103 C.ar    1  UNL1        0.0004
     13 C          62.2130   91.9843    3.4627 C.ar    1  UNL1       -0.0001
     14 C          61.4103   92.8573    2.5442 C.ar    1  UNL1        0.0031
     15 C          59.9168   92.9085    2.6733 C.ar    1  UNL1        0.0366
     16 C          59.2259   92.0868    3.7209 C.ar    1  UNL1        0.1362
     17 O          57.7323   92.1381    3.8500 O.3     1  UNL1       -0.4730
     18 C          57.0414   91.3163    4.8976 C.3     1  UNL1        0.2364
     19 C          57.8441   90.4433    5.8161 C.3     1  UNL1        0.1762
     20 O          57.1533   89.6216    6.8637 O.3     1  UNL1       -0.3788
     21 H          56.1961   89.7698    6.8116 H       1  UNL1        0.2106
     22 C          60.4622   87.4082    9.2172 C.3     1  UNL1        0.0371
     23 C          61.0579   86.3334    8.3570 C.ar    1  UNL1       -0.0025
     24 C          62.4711   85.8861    8.5866 C.ar    1  UNL1       -0.0011
     25 C          63.0667   84.8112    7.7264 C.ar    1  UNL1        0.0204
     26 C          62.2492   84.1837    6.6366 C.ar    1  UNL1        0.0989
     27 N          60.8360   84.6310    6.4069 N.ar    1  UNL1       -0.2426
     28 C          60.2403   85.7058    7.2671 C.ar    1  UNL1        0.0946
     29 C          62.9126   90.2940   12.0019 C.3     1  UNL1        0.1021
     30 N          63.2699   89.0277   12.7221 N.3     1  UNL1       -0.2621
     31 C          62.8496   87.7016   12.1610 C.3     1  UNL1        0.0901
     32 C          63.2069   86.4352   12.8813 C.3     1  UNL1        0.0900
     33 N          63.9845   86.4950   14.1626 N.3     1  UNL1       -0.2635
     34 C          64.4048   87.8211   14.7237 C.3     1  UNL1        0.0980
     35 C          64.0475   89.0874   14.0034 C.3     1  UNL1        0.1510
     36 C          64.4677   90.4135   14.5645 C.2     1  UNL1        0.2386
     37 O          63.5611   91.1516   15.5043 O.2     1  UNL1       -0.2736
     38 N          65.7947   91.0016   14.1857 N.am    1  UNL1       -0.2961
     39 H          66.3898   90.5172   13.5689 H       1  UNL1        0.1497
     40 C          66.2150   92.3277   14.7468 C.3     1  UNL1        0.1939
     41 C          67.4425   92.4246   15.6035 C.3     1  UNL1        0.4154
     42 F          68.6700   92.5214   16.4601 F       1  UNL1       -0.1682
     43 F          66.5865   92.7388   16.7945 F       1  UNL1       -0.1682
     44 F          68.2985   92.1103   14.4125 F       1  UNL1       -0.1682
     45 C          64.3418   85.2287   14.8829 C.3     1  UNL1        0.1377
     46 C          63.6810   83.9371   14.5017 C.ar    1  UNL1        0.1390
     47 C          62.6888   83.1762   15.3303 C.ar    1  UNL1        0.0375
     48 C          62.2910   81.9485   14.5658 C.ar    1  UNL1        0.0403
     49 C          63.0374   81.9506   13.2647 C.ar    1  UNL1        0.1449
     50 O          63.8965   83.1796   13.2251 O.2     1  UNL1       -0.4564
     51 C          62.9416   80.9070   12.1915 C.ar    1  UNL1        0.0345
     52 C          63.1995   81.2764   10.7608 C.ar    1  UNL1        0.0030
     53 C          63.1036   80.2328    9.6877 C.ar    1  UNL1        0.0001
     54 C          62.7499   78.8197   10.0453 C.ar    1  UNL1        0.0000
     55 C          62.4919   78.4502   11.4761 C.ar    1  UNL1        0.0001
     56 C          62.5878   79.4938   12.5491 C.ar    1  UNL1        0.0030
@<TRIPOS>BOND
     1     6     7    2
     2     7     8   am
     3    10     8    1
     4    10    11    1
     5    11    12   ar
     6    12    13   ar
     7    13    14   ar
     8    14    15   ar
     9    15    16   ar
    10    16    17    1
    11    17    18    1
    12    18    19    1
    13    19    20    1
    14     7     5    1
    15     5    22    1
    16    22    23    1
    17    23    24   ar
    18    24    25   ar
    19    25    26   ar
    20    26    27   ar
    21    27    28   ar
    22     5     4    1
    23     4     1    1
    24     1     2    1
    25     1    29    1
    26    29    30    1
    27    30    31    1
    28    31    32    1
    29    32    33    1
    30    33    45    1
    31    45    46    1
    32    46    47   ar
    33    47    48   ar
    34    48    49   ar
    35    49    51    1
    36    51    52   ar
    37    52    53   ar
    38    53    54   ar
    39    54    55   ar
    40    55    56   ar
    41    49    50   ar
    42    33    34    1
    43    34    35    1
    44    35    36    1
    45    36    37    2
    46    36    38   am
    47    38    40    1
    48    40    41    1
    49    41    42    1
    50    41    43    1
    51    41    44    1
    52    19    10    1
    53    28    23   ar
    54    35    30    1
    55    16    11   ar
    56    50    46   ar
    57    56    51   ar
    58     8     9    1
    59    20    21    1
    60     2     3    1
    61    38    39    1
@<TRIPOS>MOLECULE
*****
 56 61 0 0 0
SMALL
GASTEIGER

@<TRIPOS>ATOM
      1 C          64.3411   88.9565   14.2162 C.3     1  UNL1        0.1269
      2 O          65.6689   88.9418   14.9138 O.3     1  UNL1       -0.3830
      3 H          65.8872   88.0334   15.1746 H       1  UNL1        0.2104
      4 C          63.7738   90.2497   13.7107 C.3     1  UNL1        0.0401
      5 C          64.6572   91.4544   13.5757 C.3     1  UNL1        0.0833
      6 O          64.5189   91.3606   10.9830 O.2     1  UNL1       -0.2751
      7 C          65.1983   91.8408   12.2310 C.2     1  UNL1        0.2226
      8 N          66.4189   92.7074   12.1346 N.am    1  UNL1       -0.2999
      9 H          66.8648   93.0225   12.9538 H       1  UNL1        0.1498
     10 C          66.9600   93.0937   10.7900 C.3     1  UNL1        0.1278
     11 C          66.4754   94.3439   10.1175 C.ar    1  UNL1        0.0320
     12 C          65.4496   95.2076   10.7895 C.ar    1  UNL1        0.0004
     13 C          64.9649   96.4577   10.1170 C.ar    1  UNL1       -0.0001
     14 C          65.5060   96.8441    8.7724 C.ar    1  UNL1        0.0031
     15 C          66.5318   95.9803    8.1004 C.ar    1  UNL1        0.0366
     16 C          67.0165   94.7302    8.7730 C.ar    1  UNL1        0.1362
     17 O          68.0423   93.8665    8.1009 O.3     1  UNL1       -0.4730
     18 C          68.5270   92.6163    8.7734 C.3     1  UNL1        0.2364
     19 C          67.9858   92.2300   10.1180 C.3     1  UNL1        0.1762
     20 O          68.4704   90.9799   10.7906 O.3     1  UNL1       -0.3788
     21 H          69.1265   90.5424   10.2257 H       1  UNL1        0.2106
     22 C          64.9995   92.2728   14.7853 C.3     1  UNL1        0.0371
     23 C          66.4339   92.5679   15.1097 C.ar    1  UNL1       -0.0025
     24 C          67.4795   91.5097   14.9172 C.ar    1  UNL1       -0.0011
     25 C          68.9140   91.8049   15.2417 C.ar    1  UNL1        0.0204
     26 C          69.3028   93.1582   15.7586 C.ar    1  UNL1        0.0989
     27 N          68.2573   94.2164   15.9511 N.ar    1  UNL1       -0.2426
     28 C          66.8229   93.9213   15.6267 C.ar    1  UNL1        0.0946
     29 C          63.5806   87.6779   14.0242 C.3     1  UNL1        0.1021
     30 N          63.0379   87.3241   12.6713 N.3     1  UNL1       -0.2621
     31 C          62.6623   88.4096   11.7065 C.3     1  UNL1        0.0901
     32 C          62.1195   88.0557   10.3537 C.3     1  UNL1        0.0900
     33 N          61.9525   86.6164    9.9655 N.3     1  UNL1       -0.2635
     34 C          62.3281   85.5310   10.9303 C.3     1  UNL1        0.0980
     35 C          62.8708   85.8848   12.2831 C.3     1  UNL1        0.1510
     36 C          63.2465   84.7994   13.2479 C.2     1  UNL1        0.2386
     37 O          64.6741   84.6412   13.6800 O.2     1  UNL1       -0.2736
     38 N          62.1945   83.8722   13.7805 N.am    1  UNL1       -0.2961
     39 H          61.2574   83.9761   13.4969 H       1  UNL1        0.1497
     40 C          62.5701   82.7868   14.7452 C.3     1  UNL1        0.1939
     41 C          62.6571   81.3643   14.2771 C.3     1  UNL1        0.4154
     42 F          62.7440   79.9419   13.8090 F       1  UNL1       -0.1682
     43 F          61.1696   81.2282   14.4144 F       1  UNL1       -0.1682
     44 F          64.1445   81.5005   14.1398 F       1  UNL1       -0.1682
     45 C          61.4097   86.2626    8.6127 C.3     1  UNL1        0.1377
     46 C          60.3893   87.1469    7.9592 C.ar    1  UNL1        0.1390
     47 C          58.9007   86.9752    8.0275 C.ar    1  UNL1        0.0375
     48 C          58.2697   88.0802    7.2333 C.ar    1  UNL1        0.0403
     49 C          59.3684   88.9348    6.6742 C.ar    1  UNL1        0.1449
     50 O          60.6783   88.3580    7.1228 O.2     1  UNL1       -0.4564
     51 C          59.1886   90.1525    5.8169 C.ar    1  UNL1        0.0345
     52 C          60.3800   90.8030    5.1787 C.ar    1  UNL1        0.0030
     53 C          60.2003   92.0207    4.3214 C.ar    1  UNL1        0.0001
     54 C          58.8291   92.5879    4.1024 C.ar    1  UNL1        0.0000
     55 C          57.6375   91.9374    4.7406 C.ar    1  UNL1        0.0001
     56 C          57.8174   90.7198    5.5978 C.ar    1  UNL1        0.0030
@<TRIPOS>BOND
     1     6     7    2
     2     7     8   am
     3    10     8    1
     4    10    11    1
     5    11    12   ar
     6    12    13   ar
     7    13    14   ar
     8    14    15   ar
     9    15    16   ar
    10    16    17    1
    11    17    18    1
    12    18    19    1
    13    19    20    1
    14     7     5    1
    15     5    22    1
    16    22    23    1
    17    23    24   ar
    18    24    25   ar
    19    25    26   ar
    20    26    27   ar
    21    27    28   ar
    22     5     4    1
    23     4     1    1
    24     1     2    1
    25     1    29    1
    26    29    30    1
    27    30    31    1
    28    31    32    1
    29    32    33    1
    30    33    45    1
    31    45    46    1
    32    46    47   ar
    33    47    48   ar
    34    48    49   ar
    35    49    51    1
    36    51    52   ar
    37    52    53   ar
    38    53    54   ar
    39    54    55   ar
    40    55    56   ar
    41    49    50   ar
    42    33    34    1
    43    34    35    1
    44    35    36    1
    45    36    37    2
    46    36    38   am
    47    38    40    1
    48    40    41    1
    49    41    42    1
    50    41    43    1
    51    41    44    1
    52    19    10    1
    53    28    23   ar
    54    35    30    1
    55    16    11   ar
    56    50    46   ar
    57    56    51   ar
    58     8     9    1
    59    20    21    1
    60     2     3    1
    61    38    39    1
