@<TRIPOS>MOLECULE
*****
 36 40 0 0 0
SMALL
GASTEIGER

@<TRIPOS>ATOM
      1 C          65.9179   92.3518   13.4016 C.3     1  UNL1        0.1092
      2 C          66.3236   93.3843   12.3921 C.3     1  UNL1        0.1598
      3 O          65.5580   93.5205   11.1094 O.3     1  UNL1       -0.3507
      4 C          64.3867   92.6241   10.8363 C.3     1  UNL1        0.1636
      5 C          63.9810   91.5916   11.8459 C.3     1  UNL1        0.1527
      6 N          64.7466   91.4554   13.1285 N.3     1  UNL1       -0.1496
      7 C          65.7854   92.6983   15.7845 C.3     1  UNL1        0.0015
      8 C          66.6835   92.2156   14.6844 C.3     1  UNL1        0.0175
      9 C          67.8043   91.9006   15.6304 C.3     1  UNL1        0.0015
     10 C          67.9718   91.6537   14.1603 C.3     1  UNL1        0.0015
     11 S          64.3410   90.4228   14.1381 S.O2    1  UNL1        0.0635
     12 O          65.3042   89.3570   13.7068 O.2     1  UNL1       -0.1528
     13 O          63.3206   91.3698   14.6967 O.2     1  UNL1       -0.1528
     14 C          63.9353   89.3903   15.1477 C.ar    1  UNL1        0.1223
     15 C          64.1994   87.9377   14.8826 C.ar    1  UNL1        0.0208
     16 C          63.7937   86.9052   15.8923 C.ar    1  UNL1        0.0128
     17 C          63.1239   87.3253   17.1670 C.ar    1  UNL1        0.0578
     18 CL         62.7182   86.2927   18.1766 Cl      1  UNL1       -0.0822
     19 C          62.8598   88.7778   17.4321 C.ar    1  UNL1        0.0128
     20 C          63.2655   89.8103   16.4225 C.ar    1  UNL1        0.0208
     21 C          62.8097   90.6952   11.5728 C.3     1  UNL1        0.2302
     22 O          62.1857   90.6710   10.2090 O.3     1  UNL1       -0.4329
     23 C          61.4850   89.4356    9.7265 C.2     1  UNL1        0.4049
     24 O          60.5023   89.5236    8.5967 O.2     1  UNL1       -0.2262
     25 N          61.7670   88.1122   10.3740 N.am    1  UNL1       -0.2459
     26 C          62.7497   88.0243   11.5038 C.3     1  UNL1        0.0981
     27 C          63.0316   86.7009   12.1513 C.3     1  UNL1        0.0376
     28 C          62.3309   85.4655   11.6689 C.3     1  UNL1        0.0609
     29 C          61.3482   85.5535   10.5390 C.3     1  UNL1        0.0376
     30 C          61.0662   86.8768    9.8916 C.3     1  UNL1        0.0981
     31 N          62.6129   84.1421   12.3163 N.3     1  UNL1       -0.2738
     32 C          62.7001   84.0416   13.8104 C.3     1  UNL1        0.0720
     33 C          62.9821   82.7182   14.4579 C.3     1  UNL1        0.0174
     34 C          63.1768   81.4953   13.6112 C.3     1  UNL1        0.0029
     35 C          63.0895   81.5959   12.1171 C.3     1  UNL1        0.0174
     36 C          62.8075   82.9193   11.4697 C.3     1  UNL1        0.0720
@<TRIPOS>BOND
     1     7     8    1
     2     1     8    1
     3     1     2    1
     4     2     3    1
     5     3     4    1
     6     4     5    1
     7     5    21    1
     8    21    22    1
     9    22    23    1
    10    23    24    2
    11    23    25   am
    12    25    26    1
    13    26    27    1
    14    27    28    1
    15    28    31    1
    16    31    32    1
    17    32    33    1
    18    33    34    1
    19    34    35    1
    20    35    36    1
    21    28    29    1
    22    29    30    1
    23     5     6    1
    24     6    11    1
    25    11    12    2
    26    11    13    2
    27    11    14    1
    28    14    15   ar
    29    15    16   ar
    30    16    17   ar
    31    17    18    1
    32    17    19   ar
    33    19    20   ar
    34     8     9    1
    35     9    10    1
    36    10     8    1
    37     6     1    1
    38    20    14   ar
    39    30    25    1
    40    36    31    1
@<TRIPOS>MOLECULE
*****
 36 40 0 0 0
SMALL
GASTEIGER

@<TRIPOS>ATOM
      1 C          63.3932   83.9821   14.1678 C.3     1  UNL1        0.1092
      2 C          63.8201   83.9932   15.6056 C.3     1  UNL1        0.1598
      3 O          64.2365   85.2800   16.2544 O.3     1  UNL1       -0.3507
      4 C          64.2259   86.5556   15.4653 C.3     1  UNL1        0.1636
      5 C          63.7989   86.5445   14.0274 C.3     1  UNL1        0.1527
      6 N          63.3826   85.2577   13.3787 N.3     1  UNL1       -0.1496
      7 C          64.0902   82.2869   12.6006 C.3     1  UNL1        0.0015
      8 C          62.9768   82.6954   13.5189 C.3     1  UNL1        0.0175
      9 C          62.1437   81.4978   13.1698 C.3     1  UNL1        0.0015
     10 C          61.6325   82.5053   14.1566 C.3     1  UNL1        0.0015
     11 S          62.9556   85.2466   11.9407 S.O2    1  UNL1        0.0635
     12 O          64.2407   84.7218   11.3724 O.2     1  UNL1       -0.1528
     13 O          61.6084   85.7739   12.3367 O.2     1  UNL1       -0.1528
     14 C          62.5286   85.2354   10.5028 C.ar    1  UNL1        0.1223
     15 C          63.3426   84.4936    9.4844 C.ar    1  UNL1        0.0208
     16 C          62.9155   84.4825    8.0465 C.ar    1  UNL1        0.0128
     17 C          61.6746   85.2132    7.6270 C.ar    1  UNL1        0.0578
     18 CL         61.2476   85.2020    6.1892 Cl      1  UNL1       -0.0822
     19 C          60.8606   85.9550    8.6454 C.ar    1  UNL1        0.0128
     20 C          61.2876   85.9662   10.0833 C.ar    1  UNL1        0.0208
     21 C          63.7883   87.8201   13.2383 C.3     1  UNL1        0.2302
     22 O          63.1502   89.0509   13.8108 O.3     1  UNL1       -0.4329
     23 C          64.0053   90.1408   14.3860 C.2     1  UNL1        0.4049
     24 O          64.2814   90.1785   15.8599 O.2     1  UNL1       -0.2262
     25 N          64.5845   91.1929   13.4873 N.am    1  UNL1       -0.2459
     26 C          64.3084   91.1552   12.0134 C.3     1  UNL1        0.0981
     27 C          64.8875   92.2073   11.1147 C.3     1  UNL1        0.0376
     28 C          65.7427   93.2972   11.6899 C.3     1  UNL1        0.0609
     29 C          66.0187   93.3349   13.1639 C.3     1  UNL1        0.0376
     30 C          65.4396   92.2828   14.0625 C.3     1  UNL1        0.0981
     31 N          66.3218   94.3493   10.7913 N.3     1  UNL1       -0.2738
     32 C          66.1540   95.8007   11.1306 C.3     1  UNL1        0.0720
     33 C          66.7332   96.8529   10.2320 C.3     1  UNL1        0.0174
     34 C          67.4801   96.4537    8.9939 C.3     1  UNL1        0.0029
     35 C          67.6478   95.0022    8.6546 C.3     1  UNL1        0.0174
     36 C          67.0687   93.9500    9.5532 C.3     1  UNL1        0.0720
@<TRIPOS>BOND
     1     7     8    1
     2     1     8    1
     3     1     2    1
     4     2     3    1
     5     3     4    1
     6     4     5    1
     7     5    21    1
     8    21    22    1
     9    22    23    1
    10    23    24    2
    11    23    25   am
    12    25    26    1
    13    26    27    1
    14    27    28    1
    15    28    31    1
    16    31    32    1
    17    32    33    1
    18    33    34    1
    19    34    35    1
    20    35    36    1
    21    28    29    1
    22    29    30    1
    23     5     6    1
    24     6    11    1
    25    11    12    2
    26    11    13    2
    27    11    14    1
    28    14    15   ar
    29    15    16   ar
    30    16    17   ar
    31    17    18    1
    32    17    19   ar
    33    19    20   ar
    34     8     9    1
    35     9    10    1
    36    10     8    1
    37     6     1    1
    38    20    14   ar
    39    30    25    1
    40    36    31    1
@<TRIPOS>MOLECULE
*****
 36 40 0 0 0
SMALL
GASTEIGER

@<TRIPOS>ATOM
      1 C          66.2221   91.5294   14.1709 C.3     1  UNL1        0.1092
      2 C          65.7276   90.5262   15.1703 C.3     1  UNL1        0.1598
      3 O          64.4157   89.8328   14.9507 O.3     1  UNL1       -0.3507
      4 C          63.5984   90.1428   13.7317 C.3     1  UNL1        0.1636
      5 C          64.0930   91.1460   12.7323 C.3     1  UNL1        0.1527
      6 N          65.4048   91.8393   12.9519 N.3     1  UNL1       -0.1496
      7 C          68.4809   91.7109   13.3458 C.3     1  UNL1        0.0015
      8 C          67.5341   92.2228   14.3905 C.3     1  UNL1        0.0175
      9 C          68.5654   93.1300   14.9934 C.3     1  UNL1        0.0015
     10 C          67.1817   93.0791   15.5705 C.3     1  UNL1        0.0015
     11 S          65.8995   92.8427   11.9525 S.O2    1  UNL1        0.0635
     12 O          66.3422   91.8593   10.9100 O.2     1  UNL1       -0.1528
     13 O          65.5141   93.9566   12.8801 O.2     1  UNL1       -0.1528
     14 C          66.3941   93.8459   10.9531 C.ar    1  UNL1        0.1223
     15 C          66.1503   95.3092   11.1757 C.ar    1  UNL1        0.0208
     16 C          66.6450   96.3125   10.1763 C.ar    1  UNL1        0.0128
     17 C          67.3833   95.8525    8.9543 C.ar    1  UNL1        0.0578
     18 CL         67.8779   96.8558    7.9550 Cl      1  UNL1       -0.0822
     19 C          67.6270   94.3893    8.7317 C.ar    1  UNL1        0.0128
     20 C          67.1324   93.3860    9.7310 C.ar    1  UNL1        0.0208
     21 C          63.2757   91.4559   11.5133 C.3     1  UNL1        0.2302
     22 O          61.9026   90.8714   11.3624 O.3     1  UNL1       -0.4329
     23 C          61.6302   89.8651   10.2839 C.2     1  UNL1        0.4049
     24 O          61.0464   90.3078    8.9751 O.2     1  UNL1       -0.2262
     25 N          61.9416   88.4159   10.5143 N.am    1  UNL1       -0.2459
     26 C          62.5254   87.9731   11.8231 C.3     1  UNL1        0.0981
     27 C          62.8369   86.5240   12.0535 C.3     1  UNL1        0.0376
     28 C          62.5645   85.5176   10.9751 C.3     1  UNL1        0.0609
     29 C          61.9806   85.9605    9.6662 C.3     1  UNL1        0.0376
     30 C          61.6692   87.4096    9.4358 C.3     1  UNL1        0.0981
     31 N          62.8759   84.0686   11.2054 N.3     1  UNL1       -0.2738
     32 C          62.3751   83.3811   12.4409 C.3     1  UNL1        0.0720
     33 C          62.6865   81.9319   12.6713 C.3     1  UNL1        0.0174
     34 C          63.4987   81.1703   11.6662 C.3     1  UNL1        0.0029
     35 C          63.9994   81.8579   10.4306 C.3     1  UNL1        0.0174
     36 C          63.6880   83.3070   10.2002 C.3     1  UNL1        0.0720
@<TRIPOS>BOND
     1     7     8    1
     2     1     8    1
     3     1     2    1
     4     2     3    1
     5     3     4    1
     6     4     5    1
     7     5    21    1
     8    21    22    1
     9    22    23    1
    10    23    24    2
    11    23    25   am
    12    25    26    1
    13    26    27    1
    14    27    28    1
    15    28    31    1
    16    31    32    1
    17    32    33    1
    18    33    34    1
    19    34    35    1
    20    35    36    1
    21    28    29    1
    22    29    30    1
    23     5     6    1
    24     6    11    1
    25    11    12    2
    26    11    13    2
    27    11    14    1
    28    14    15   ar
    29    15    16   ar
    30    16    17   ar
    31    17    18    1
    32    17    19   ar
    33    19    20   ar
    34     8     9    1
    35     9    10    1
    36    10     8    1
    37     6     1    1
    38    20    14   ar
    39    30    25    1
    40    36    31    1
@<TRIPOS>MOLECULE
*****
 36 40 0 0 0
SMALL
GASTEIGER

@<TRIPOS>ATOM
      1 C          63.6882   82.4997   12.3453 C.3     1  UNL1        0.1092
      2 C          64.1293   81.2946   13.1219 C.3     1  UNL1        0.1598
      3 O          64.0117   81.2817   14.6172 O.3     1  UNL1       -0.3507
      4 C          63.4530   82.4739   15.3359 C.3     1  UNL1        0.1636
      5 C          63.0119   83.6790   14.5593 C.3     1  UNL1        0.1527
      6 N          63.1295   83.6919   13.0640 N.3     1  UNL1       -0.1496
      7 C          62.9435   81.3996   10.3325 C.3     1  UNL1        0.0015
      8 C          63.8058   82.5126   10.8499 C.3     1  UNL1        0.0175
      9 C          64.2370   82.9243    9.4734 C.3     1  UNL1        0.0015
     10 C          64.7495   83.6650   10.6729 C.3     1  UNL1        0.0015
     11 S          62.6884   84.8970   12.2873 S.O2    1  UNL1        0.0635
     12 O          61.5940   84.2248   11.5126 O.2     1  UNL1       -0.1528
     13 O          63.7369   85.7223   12.9726 O.2     1  UNL1       -0.1528
     14 C          62.2474   86.1021   11.5107 C.ar    1  UNL1        0.1223
     15 C          61.2564   85.9537   10.3945 C.ar    1  UNL1        0.0208
     16 C          60.8153   87.1589    9.6179 C.ar    1  UNL1        0.0128
     17 C          61.3653   88.5124    9.9575 C.ar    1  UNL1        0.0578
     18 CL         60.9243   89.7176    9.1809 Cl      1  UNL1       -0.0822
     19 C          62.3563   88.6609   11.0737 C.ar    1  UNL1        0.0128
     20 C          62.7974   87.4558   11.8503 C.ar    1  UNL1        0.0208
     21 C          62.4532   84.8712   15.2780 C.3     1  UNL1        0.2302
     22 O          63.1478   85.4068   16.4948 O.3     1  UNL1       -0.4329
     23 C          62.8397   86.7900   16.9864 C.2     1  UNL1        0.4049
     24 O          61.9593   86.9810   18.1857 O.2     1  UNL1       -0.2262
     25 N          63.4119   87.9824   16.2786 N.am    1  UNL1       -0.2459
     26 C          64.2923   87.7914   15.0792 C.3     1  UNL1        0.0981
     27 C          64.8645   88.9838   14.3714 C.3     1  UNL1        0.0376
     28 C          64.5564   90.3670   14.8630 C.3     1  UNL1        0.0609
     29 C          63.6760   90.5579   16.0624 C.3     1  UNL1        0.0376
     30 C          63.1038   89.3656   16.7701 C.3     1  UNL1        0.0981
     31 N          65.1286   91.5593   14.1553 N.3     1  UNL1       -0.2738
     32 C          64.8362   91.7797   12.7007 C.3     1  UNL1        0.0720
     33 C          65.4084   92.9721   11.9929 C.3     1  UNL1        0.0174
     34 C          66.2730   93.9440   12.7397 C.3     1  UNL1        0.0029
     35 C          66.5654   93.7235   14.1944 C.3     1  UNL1        0.0174
     36 C          65.9932   92.5312   14.9021 C.3     1  UNL1        0.0720
@<TRIPOS>BOND
     1     7     8    1
     2     1     8    1
     3     1     2    1
     4     2     3    1
     5     3     4    1
     6     4     5    1
     7     5    21    1
     8    21    22    1
     9    22    23    1
    10    23    24    2
    11    23    25   am
    12    25    26    1
    13    26    27    1
    14    27    28    1
    15    28    31    1
    16    31    32    1
    17    32    33    1
    18    33    34    1
    19    34    35    1
    20    35    36    1
    21    28    29    1
    22    29    30    1
    23     5     6    1
    24     6    11    1
    25    11    12    2
    26    11    13    2
    27    11    14    1
    28    14    15   ar
    29    15    16   ar
    30    16    17   ar
    31    17    18    1
    32    17    19   ar
    33    19    20   ar
    34     8     9    1
    35     9    10    1
    36    10     8    1
    37     6     1    1
    38    20    14   ar
    39    30    25    1
    40    36    31    1
@<TRIPOS>MOLECULE
*****
 36 40 0 0 0
SMALL
GASTEIGER

@<TRIPOS>ATOM
      1 C          63.1701   83.7431   14.7232 C.3     1  UNL1        0.1092
      2 C          63.3479   83.7790   16.2121 C.3     1  UNL1        0.1598
      3 O          63.7880   85.0455   16.8845 O.3     1  UNL1       -0.3507
      4 C          64.0503   86.2761   16.0680 C.3     1  UNL1        0.1636
      5 C          63.8724   86.2403   14.5790 C.3     1  UNL1        0.1527
      6 N          63.4323   84.9737   13.9066 N.3     1  UNL1       -0.1496
      7 C          63.9651   81.8066   13.5258 C.3     1  UNL1        0.0015
      8 C          62.7300   82.4765   14.0507 C.3     1  UNL1        0.0175
      9 C          61.8285   81.3935   13.5362 C.3     1  UNL1        0.0015
     10 C          61.2490   82.5652   14.2721 C.3     1  UNL1        0.0015
     11 S          63.2545   84.9378   12.4176 S.O2    1  UNL1        0.0635
     12 O          61.8714   85.5172   12.3846 O.2     1  UNL1       -0.1528
     13 O          64.6262   84.3496   12.2680 O.2     1  UNL1       -0.1528
     14 C          63.0767   84.9018   10.9286 C.ar    1  UNL1        0.1223
     15 C          62.2523   85.9528   10.2461 C.ar    1  UNL1        0.0208
     16 C          62.0745   85.9168    8.7571 C.ar    1  UNL1        0.0128
     17 C          62.7211   84.8298    7.9506 C.ar    1  UNL1        0.0578
     18 CL         62.5433   84.7939    6.4617 Cl      1  UNL1       -0.0822
     19 C          63.5455   83.7789    8.6331 C.ar    1  UNL1        0.0128
     20 C          63.7233   83.8148   10.1221 C.ar    1  UNL1        0.0208
     21 C          64.1347   87.4709   13.7625 C.3     1  UNL1        0.2302
     22 O          63.1563   88.6076   13.7837 O.3     1  UNL1       -0.4329
     23 C          62.7745   89.2925   12.5050 C.2     1  UNL1        0.4049
     24 O          61.6019   88.7985   11.7107 O.2     1  UNL1       -0.2262
     25 N          63.5653   90.4716   12.0205 N.am    1  UNL1       -0.2459
     26 C          64.7379   90.9656   12.8148 C.3     1  UNL1        0.0981
     27 C          65.5287   92.1446   12.3304 C.3     1  UNL1        0.0376
     28 C          65.1469   92.8295   11.0517 C.3     1  UNL1        0.0609
     29 C          63.9743   92.3354   10.2574 C.3     1  UNL1        0.0376
     30 C          63.1835   91.1565   10.7418 C.3     1  UNL1        0.0981
     31 N          65.9377   94.0085   10.5673 N.3     1  UNL1       -0.2738
     32 C          66.9457   93.8357    9.4700 C.3     1  UNL1        0.0720
     33 C          67.7365   95.0147    8.9855 C.3     1  UNL1        0.0174
     34 C          67.5193   96.3664    9.5983 C.3     1  UNL1        0.0029
     35 C          66.5112   96.5392   10.6957 C.3     1  UNL1        0.0174
     36 C          65.7205   95.3602   11.1801 C.3     1  UNL1        0.0720
@<TRIPOS>BOND
     1     7     8    1
     2     1     8    1
     3     1     2    1
     4     2     3    1
     5     3     4    1
     6     4     5    1
     7     5    21    1
     8    21    22    1
     9    22    23    1
    10    23    24    2
    11    23    25   am
    12    25    26    1
    13    26    27    1
    14    27    28    1
    15    28    31    1
    16    31    32    1
    17    32    33    1
    18    33    34    1
    19    34    35    1
    20    35    36    1
    21    28    29    1
    22    29    30    1
    23     5     6    1
    24     6    11    1
    25    11    12    2
    26    11    13    2
    27    11    14    1
    28    14    15   ar
    29    15    16   ar
    30    16    17   ar
    31    17    18    1
    32    17    19   ar
    33    19    20   ar
    34     8     9    1
    35     9    10    1
    36    10     8    1
    37     6     1    1
    38    20    14   ar
    39    30    25    1
    40    36    31    1
@<TRIPOS>MOLECULE
*****
 36 40 0 0 0
SMALL
GASTEIGER

@<TRIPOS>ATOM
      1 C          60.6967   87.9003    9.1834 C.3     1  UNL1        0.1092
      2 C          60.2165   89.2694    8.8028 C.3     1  UNL1        0.1598
      3 O          60.6321   90.4618    9.6124 O.3     1  UNL1       -0.3507
      4 C          61.5278   90.2851   10.8026 C.3     1  UNL1        0.1636
      5 C          62.0080   88.9160   11.1832 C.3     1  UNL1        0.1527
      6 N          61.5924   87.7236   10.3736 N.3     1  UNL1       -0.1496
      7 C          58.7950   86.5720    8.5241 C.3     1  UNL1        0.0015
      8 C          60.2812   86.7078    8.3739 C.3     1  UNL1        0.0175
      9 C          60.3789   85.5111    7.4747 C.3     1  UNL1        0.0015
     10 C          61.6145   86.2816    7.8349 C.3     1  UNL1        0.0015
     11 S          62.0726   86.3544   10.7542 S.O2    1  UNL1        0.0635
     12 O          63.2442   86.3050    9.8189 O.2     1  UNL1       -0.1528
     13 O          60.9512   86.2361   11.7432 O.2     1  UNL1       -0.1528
     14 C          62.5528   84.9853   11.1348 C.ar    1  UNL1        0.1223
     15 C          63.2565   84.1293   10.1238 C.ar    1  UNL1        0.0208
     16 C          63.7366   82.7601   10.5044 C.ar    1  UNL1        0.0128
     17 C          63.5130   82.2469   11.8960 C.ar    1  UNL1        0.0578
     18 CL         63.9931   80.8778   12.2766 Cl      1  UNL1       -0.0822
     19 C          62.8093   83.1029   12.9070 C.ar    1  UNL1        0.0128
     20 C          62.3292   84.4720   12.5265 C.ar    1  UNL1        0.0208
     21 C          62.9037   88.7393   12.3733 C.3     1  UNL1        0.2302
     22 O          62.7098   89.5931   13.5912 O.3     1  UNL1       -0.4329
     23 C          63.8308   90.4576   14.0874 C.2     1  UNL1        0.4049
     24 O          64.2965   90.3396   15.5083 O.2     1  UNL1       -0.2262
     25 N          64.4860   91.4402   13.1625 N.am    1  UNL1       -0.2459
     26 C          64.0202   91.5582   11.7415 C.3     1  UNL1        0.0981
     27 C          64.6754   92.5408   10.8166 C.3     1  UNL1        0.0376
     28 C          65.7964   93.4052   11.3128 C.3     1  UNL1        0.0609
     29 C          66.2621   93.2872   12.7338 C.3     1  UNL1        0.0376
     30 C          65.6069   92.3047   13.6586 C.3     1  UNL1        0.0981
     31 N          66.4516   94.3878   10.3879 N.3     1  UNL1       -0.2738
     32 C          67.2786   93.8975    9.2366 C.3     1  UNL1        0.0720
     33 C          67.9338   94.8800    8.3117 C.3     1  UNL1        0.0174
     34 C          67.7621   96.3528    8.5382 C.3     1  UNL1        0.0029
     35 C          66.9351   96.8431    9.6897 C.3     1  UNL1        0.0174
     36 C          66.2799   95.8606   10.6145 C.3     1  UNL1        0.0720
@<TRIPOS>BOND
     1     7     8    1
     2     1     8    1
     3     1     2    1
     4     2     3    1
     5     3     4    1
     6     4     5    1
     7     5    21    1
     8    21    22    1
     9    22    23    1
    10    23    24    2
    11    23    25   am
    12    25    26    1
    13    26    27    1
    14    27    28    1
    15    28    31    1
    16    31    32    1
    17    32    33    1
    18    33    34    1
    19    34    35    1
    20    35    36    1
    21    28    29    1
    22    29    30    1
    23     5     6    1
    24     6    11    1
    25    11    12    2
    26    11    13    2
    27    11    14    1
    28    14    15   ar
    29    15    16   ar
    30    16    17   ar
    31    17    18    1
    32    17    19   ar
    33    19    20   ar
    34     8     9    1
    35     9    10    1
    36    10     8    1
    37     6     1    1
    38    20    14   ar
    39    30    25    1
    40    36    31    1
@<TRIPOS>MOLECULE
*****
 36 40 0 0 0
SMALL
GASTEIGER

@<TRIPOS>ATOM
      1 C          66.3055   92.9981   13.3779 C.3     1  UNL1        0.1092
      2 C          67.1717   93.7460   14.3476 C.3     1  UNL1        0.1598
      3 O          67.0453   93.4878   15.8198 O.3     1  UNL1       -0.3507
      4 C          66.0526   92.4817   16.3222 C.3     1  UNL1        0.1636
      5 C          65.1864   91.7339   15.3525 C.3     1  UNL1        0.1527
      6 N          65.3129   91.9921   13.8804 N.3     1  UNL1       -0.1496
      7 C          65.7115   94.5411   11.6223 C.3     1  UNL1        0.0015
      8 C          66.4319   93.2563   11.9057 C.3     1  UNL1        0.0175
      9 C          66.8217   93.0664   10.4696 C.3     1  UNL1        0.0015
     10 C          67.2339   92.0558   11.4987 C.3     1  UNL1        0.0015
     11 S          64.4466   91.2442   12.9106 S.O2    1  UNL1        0.0635
     12 O          63.5364   92.3842   12.5617 O.2     1  UNL1       -0.1528
     13 O          65.2573   90.0038   13.1430 O.2     1  UNL1       -0.1528
     14 C          63.5804   90.4964   11.9409 C.ar    1  UNL1        0.1223
     15 C          63.1578   91.1465   10.6569 C.ar    1  UNL1        0.0208
     16 C          62.2916   90.3986    9.6871 C.ar    1  UNL1        0.0128
     17 C          61.8481   89.0006   10.0014 C.ar    1  UNL1        0.0578
     18 CL         60.9819   88.2527    9.0317 Cl      1  UNL1       -0.0822
     19 C          62.2707   88.3504   11.2854 C.ar    1  UNL1        0.0128
     20 C          63.1369   89.0983   12.2551 C.ar    1  UNL1        0.0208
     21 C          64.1937   90.7278   15.8550 C.3     1  UNL1        0.2302
     22 O          64.2880   89.2969   15.4151 O.3     1  UNL1       -0.4329
     23 C          63.5964   88.2233   16.2019 C.2     1  UNL1        0.4049
     24 O          63.0988   88.5112   17.5873 O.2     1  UNL1       -0.2262
     25 N          63.4024   86.8616   15.6032 N.am    1  UNL1       -0.2459
     26 C          63.9000   86.5737   14.2178 C.3     1  UNL1        0.0981
     27 C          63.7060   85.2120   13.6191 C.3     1  UNL1        0.0376
     28 C          63.0144   84.1384   14.4059 C.3     1  UNL1        0.0609
     29 C          62.5168   84.4264   15.7914 C.3     1  UNL1        0.0376
     30 C          62.7108   85.7880   16.3900 C.3     1  UNL1        0.0981
     31 N          62.8204   82.7768   13.8072 N.3     1  UNL1       -0.2738
     32 C          61.9556   81.7679   14.5031 C.3     1  UNL1        0.0720
     33 C          61.7615   80.4063   13.9044 C.3     1  UNL1        0.0174
     34 C          62.4323   80.0536   12.6100 C.3     1  UNL1        0.0029
     35 C          63.2971   81.0625   11.9141 C.3     1  UNL1        0.0174
     36 C          63.4912   82.4241   12.5128 C.3     1  UNL1        0.0720
@<TRIPOS>BOND
     1     7     8    1
     2     1     8    1
     3     1     2    1
     4     2     3    1
     5     3     4    1
     6     4     5    1
     7     5    21    1
     8    21    22    1
     9    22    23    1
    10    23    24    2
    11    23    25   am
    12    25    26    1
    13    26    27    1
    14    27    28    1
    15    28    31    1
    16    31    32    1
    17    32    33    1
    18    33    34    1
    19    34    35    1
    20    35    36    1
    21    28    29    1
    22    29    30    1
    23     5     6    1
    24     6    11    1
    25    11    12    2
    26    11    13    2
    27    11    14    1
    28    14    15   ar
    29    15    16   ar
    30    16    17   ar
    31    17    18    1
    32    17    19   ar
    33    19    20   ar
    34     8     9    1
    35     9    10    1
    36    10     8    1
    37     6     1    1
    38    20    14   ar
    39    30    25    1
    40    36    31    1
@<TRIPOS>MOLECULE
*****
 36 40 0 0 0
SMALL
GASTEIGER

@<TRIPOS>ATOM
      1 C          61.1055   87.1468    8.6329 C.3     1  UNL1        0.1092
      2 C          60.4487   88.2648    7.8788 C.3     1  UNL1        0.1598
      3 O          59.8645   89.4292    8.6221 O.3     1  UNL1       -0.3507
      4 C          59.9370   89.4758   10.1196 C.3     1  UNL1        0.1636
      5 C          60.5938   88.3578   10.8738 C.3     1  UNL1        0.1527
      6 N          61.1780   87.1934   10.1304 N.3     1  UNL1       -0.1496
      7 C          63.1572   85.9560    8.1992 C.3     1  UNL1        0.0015
      8 C          61.6897   85.9823    7.8896 C.3     1  UNL1        0.0175
      9 C          61.7750   84.7756    7.0026 C.3     1  UNL1        0.0015
     10 C          60.4559   85.4566    7.2179 C.3     1  UNL1        0.0015
     11 S          61.8348   86.0753   10.8846 S.O2    1  UNL1        0.0635
     12 O          62.9788   86.8738   11.4357 O.2     1  UNL1       -0.1528
     13 O          60.7629   85.1336   10.4219 O.2     1  UNL1       -0.1528
     14 C          62.4916   84.9573   11.6387 C.ar    1  UNL1        0.1223
     15 C          62.7752   83.6544   10.9518 C.ar    1  UNL1        0.0208
     16 C          63.4320   82.5363   11.7060 C.ar    1  UNL1        0.0128
     17 C          63.8051   82.7213   13.1470 C.ar    1  UNL1        0.0578
     18 CL         64.4619   81.6033   13.9011 Cl      1  UNL1       -0.0822
     19 C          63.5215   84.0243   13.8339 C.ar    1  UNL1        0.0128
     20 C          62.8647   85.1423   13.0798 C.ar    1  UNL1        0.0208
     21 C          60.6664   88.4044   12.3713 C.3     1  UNL1        0.2302
     22 O          60.8662   89.7154   13.0721 O.3     1  UNL1       -0.4329
     23 C          62.1945   90.0420   13.6877 C.2     1  UNL1        0.4049
     24 O          62.4805   89.6489   15.1067 O.2     1  UNL1       -0.2262
     25 N          63.2369   90.7617   12.8842 N.am    1  UNL1       -0.2459
     26 C          62.9509   91.1548   11.4651 C.3     1  UNL1        0.0981
     27 C          63.9933   91.8744   10.6616 C.3     1  UNL1        0.0376
     28 C          65.3216   92.2010   11.2772 C.3     1  UNL1        0.0609
     29 C          65.6075   91.8079   12.6963 C.3     1  UNL1        0.0376
     30 C          64.5652   91.0883   13.4997 C.3     1  UNL1        0.0981
     31 N          66.3639   92.9207   10.4737 N.3     1  UNL1       -0.2738
     32 C          66.1857   94.3729   10.1431 C.3     1  UNL1        0.0720
     33 C          67.2281   95.0926    9.3396 C.3     1  UNL1        0.0174
     34 C          68.4487   94.3600    8.8668 C.3     1  UNL1        0.0029
     35 C          68.6268   92.9078    9.1974 C.3     1  UNL1        0.0174
     36 C          67.5845   92.1881   10.0008 C.3     1  UNL1        0.0720
@<TRIPOS>BOND
     1     7     8    1
     2     1     8    1
     3     1     2    1
     4     2     3    1
     5     3     4    1
     6     4     5    1
     7     5    21    1
     8    21    22    1
     9    22    23    1
    10    23    24    2
    11    23    25   am
    12    25    26    1
    13    26    27    1
    14    27    28    1
    15    28    31    1
    16    31    32    1
    17    32    33    1
    18    33    34    1
    19    34    35    1
    20    35    36    1
    21    28    29    1
    22    29    30    1
    23     5     6    1
    24     6    11    1
    25    11    12    2
    26    11    13    2
    27    11    14    1
    28    14    15   ar
    29    15    16   ar
    30    16    17   ar
    31    17    18    1
    32    17    19   ar
    33    19    20   ar
    34     8     9    1
    35     9    10    1
    36    10     8    1
    37     6     1    1
    38    20    14   ar
    39    30    25    1
    40    36    31    1
@<TRIPOS>MOLECULE
*****
 36 40 0 0 0
SMALL
GASTEIGER

@<TRIPOS>ATOM
      1 C          61.1876   86.6469    8.3287 C.3     1  UNL1        0.1092
      2 C          60.3818   87.4113    7.3206 C.3     1  UNL1        0.1598
      3 O          59.4059   88.4552    7.7764 O.3     1  UNL1       -0.3507
      4 C          59.2357   88.7346    9.2403 C.3     1  UNL1        0.1636
      5 C          60.0415   87.9701   10.2484 C.3     1  UNL1        0.1527
      6 N          61.0175   86.9263    9.7926 N.3     1  UNL1       -0.1496
      7 C          63.4922   85.9518    8.4755 C.3     1  UNL1        0.0015
      8 C          62.1637   85.6029    7.8729 C.3     1  UNL1        0.0175
      9 C          62.7077   84.3880    7.1814 C.3     1  UNL1        0.0015
     10 C          61.2588   84.7482    7.0360 C.3     1  UNL1        0.0015
     11 S          61.8233   86.1618   10.8007 S.O2    1  UNL1        0.0635
     12 O          61.1289   84.8435   10.6281 O.2     1  UNL1       -0.1528
     13 O          62.6219   87.3961   11.0983 O.2     1  UNL1       -0.1528
     14 C          62.6292   85.3973   11.8087 C.ar    1  UNL1        0.1223
     15 C          62.7856   83.9117   11.6731 C.ar    1  UNL1        0.0208
     16 C          63.5915   83.1472   12.6812 C.ar    1  UNL1        0.0128
     17 C          64.2409   83.8685   13.8249 C.ar    1  UNL1        0.0578
     18 CL         65.0467   83.1040   14.8330 Cl      1  UNL1       -0.0822
     19 C          64.0845   85.3541   13.9606 C.ar    1  UNL1        0.0128
     20 C          63.2786   86.1185   12.9525 C.ar    1  UNL1        0.0208
     21 C          59.8713   88.2495   11.7123 C.3     1  UNL1        0.2302
     22 O          60.4252   89.5115   12.3043 O.3     1  UNL1       -0.4329
     23 C          61.4632   90.2970   11.5590 C.2     1  UNL1        0.4049
     24 O          61.2365   90.6663   10.1230 O.2     1  UNL1       -0.2262
     25 N          62.7280   90.7132   12.2498 N.am    1  UNL1       -0.2459
     26 C          62.9547   90.3439   13.6858 C.3     1  UNL1        0.0981
     27 C          64.2195   90.7601   14.3766 C.3     1  UNL1        0.0376
     28 C          65.2576   91.5456   13.6313 C.3     1  UNL1        0.0609
     29 C          65.0308   91.9149   12.1952 C.3     1  UNL1        0.0376
     30 C          63.7661   91.4987   11.5045 C.3     1  UNL1        0.0981
     31 N          66.5223   91.9618   14.3221 N.3     1  UNL1       -0.2738
     32 C          66.4713   92.4939   15.7235 C.3     1  UNL1        0.0720
     33 C          67.7361   92.9101   16.4143 C.3     1  UNL1        0.0174
     34 C          69.0519   92.7942   15.7036 C.3     1  UNL1        0.0029
     35 C          69.1029   92.2620   14.3020 C.3     1  UNL1        0.0174
     36 C          67.8382   91.8458   13.6113 C.3     1  UNL1        0.0720
@<TRIPOS>BOND
     1     7     8    1
     2     1     8    1
     3     1     2    1
     4     2     3    1
     5     3     4    1
     6     4     5    1
     7     5    21    1
     8    21    22    1
     9    22    23    1
    10    23    24    2
    11    23    25   am
    12    25    26    1
    13    26    27    1
    14    27    28    1
    15    28    31    1
    16    31    32    1
    17    32    33    1
    18    33    34    1
    19    34    35    1
    20    35    36    1
    21    28    29    1
    22    29    30    1
    23     5     6    1
    24     6    11    1
    25    11    12    2
    26    11    13    2
    27    11    14    1
    28    14    15   ar
    29    15    16   ar
    30    16    17   ar
    31    17    18    1
    32    17    19   ar
    33    19    20   ar
    34     8     9    1
    35     9    10    1
    36    10     8    1
    37     6     1    1
    38    20    14   ar
    39    30    25    1
    40    36    31    1
