@<TRIPOS>MOLECULE
*****
 36 39 0 0 0
SMALL
GASTEIGER

@<TRIPOS>ATOM
      1 N          63.1046   90.9719   11.7027 N.am    1  UNL1       -0.2438
      2 C          63.5612   91.6792   10.4612 C.3     1  UNL1        0.1009
      3 C          64.7567   92.5837   10.5100 C.3     1  UNL1        0.0662
      4 C          65.4958   92.7810   11.8003 C.3     1  UNL1        0.1621
      5 O          65.0392   92.0737   13.0418 O.3     1  UNL1       -0.4374
      6 C          63.8436   91.1692   12.9930 C.2     1  UNL1        0.4051
      7 O          63.3871   90.4620   14.2345 O.2     1  UNL1       -0.2262
      8 C          66.3068   93.6632   10.8980 C.ar    1  UNL1        0.0413
      9 C          66.1433   95.1529   10.9609 C.ar    1  UNL1        0.0013
     10 C          66.9544   96.0351   10.0587 C.ar    1  UNL1       -0.0001
     11 C          67.9289   95.4275    9.0937 C.ar    1  UNL1        0.0023
     12 C          68.0924   93.9378    9.0308 C.ar    1  UNL1        0.0294
     13 C          67.2813   93.0556    9.9331 C.ar    1  UNL1        0.1393
     14 F          67.4447   91.5659    9.8703 F       1  UNL1       -0.2044
     15 C          60.5283   90.6513   11.6028 C.3     1  UNL1        0.0265
     16 C          61.9090   90.0674   11.6539 C.3     1  UNL1        0.1011
     17 C          62.0942   88.5788   11.6561 C.ar    1  UNL1       -0.0042
     18 C          63.1303   87.9532   12.5421 C.ar    1  UNL1       -0.0027
     19 C          63.3154   86.4647   12.5444 C.ar    1  UNL1       -0.0002
     20 C          62.4644   85.6018   11.6605 C.ar    1  UNL1        0.0014
     21 C          61.4283   86.2273   10.7745 C.ar    1  UNL1       -0.0002
     22 C          61.2432   87.7158   10.7723 C.ar    1  UNL1       -0.0027
     23 C          62.6496   84.1132   11.6628 C.ar    1  UNL1        0.0175
     24 C          63.2962   83.4361   10.4909 C.ar    1  UNL1        0.0064
     25 C          63.4813   81.9475   10.4931 C.ar    1  UNL1        0.0608
     26 C          63.0199   81.1361   11.6673 C.ar    1  UNL1        0.2610
     27 O          63.2050   79.6476   11.6696 O.2     1  UNL1       -0.2670
     28 N          62.3733   81.8133   12.8392 N.ar    1  UNL1       -0.2922
     29 C          61.9118   81.0019   14.0134 C.3     1  UNL1        0.1336
     30 C          62.1881   83.3018   12.8370 C.ar    1  UNL1        0.0783
     31 C          66.5165   93.2847   12.7773 C.3     1  UNL1        0.0715
     32 C          67.0472   92.3735   13.8441 C.3     1  UNL1        0.0922
     33 C          66.2310   93.1008   14.8713 C.3     1  UNL1        0.0294
     34 C          67.8633   91.6463   12.8169 C.3     1  UNL1        0.0294
     35 O          67.5779   91.4624   14.9109 O.3     1  UNL1       -0.3866
     36 H          67.1946   91.7094   15.7671 H       1  UNL1        0.2102
@<TRIPOS>BOND
     1    16    15    1
     2    16    17    1
     3    17    18   ar
     4    18    19   ar
     5    19    20   ar
     6    20    23    1
     7    23    24   ar
     8    24    25   ar
     9    25    26   ar
    10    26    27    2
    11    26    28   ar
    12    28    29    1
    13    28    30   ar
    14    20    21   ar
    15    21    22   ar
    16    16     1    1
    17     1     2    1
    18     2     3    1
    19     3     4    1
    20     4    31    1
    21    31    32    1
    22    32    33    1
    23    32    34    1
    24    32    35    1
    25     4     8    1
    26     8     9   ar
    27     9    10   ar
    28    10    11   ar
    29    11    12   ar
    30    12    13   ar
    31    13    14    1
    32     4     5    1
    33     5     6    1
    34     6     7    2
    35    22    17   ar
    36     6     1   am
    37    30    23   ar
    38    13     8   ar
    39    35    36    1
@<TRIPOS>MOLECULE
*****
 36 39 0 0 0
SMALL
GASTEIGER

@<TRIPOS>ATOM
      1 N          63.1465   90.8608   11.7795 N.am    1  UNL1       -0.2438
      2 C          63.6765   91.3864   10.4784 C.3     1  UNL1        0.1009
      3 C          64.8849   92.2749   10.4648 C.3     1  UNL1        0.0662
      4 C          65.5634   92.6379   11.7524 C.3     1  UNL1        0.1621
      5 O          65.0335   92.1123   13.0536 O.3     1  UNL1       -0.4374
      6 C          63.8250   91.2237   13.0671 C.2     1  UNL1        0.4051
      7 O          63.2951   90.6982   14.3682 O.2     1  UNL1       -0.2262
      8 C          66.4340   93.3789   10.7813 C.ar    1  UNL1        0.0413
      9 C          67.3807   92.6242    9.8958 C.ar    1  UNL1        0.0013
     10 C          68.2514   93.3653    8.9247 C.ar    1  UNL1       -0.0001
     11 C          68.1752   94.8609    8.8392 C.ar    1  UNL1        0.0023
     12 C          67.2284   95.6155    9.7247 C.ar    1  UNL1        0.0294
     13 C          66.3578   94.8745   10.6958 C.ar    1  UNL1        0.1393
     14 F          65.4111   95.6291   11.5814 F       1  UNL1       -0.2044
     15 C          60.5647   90.5745   11.8251 C.3     1  UNL1        0.0265
     16 C          61.9381   89.9722   11.7930 C.3     1  UNL1        0.1011
     17 C          62.1031   88.4814   11.7744 C.ar    1  UNL1       -0.0042
     18 C          61.2052   87.6381   10.9186 C.ar    1  UNL1       -0.0027
     19 C          61.3702   86.1473   10.9000 C.ar    1  UNL1       -0.0002
     20 C          62.4332   85.4999   11.7373 C.ar    1  UNL1        0.0014
     21 C          63.3311   86.3433   12.5931 C.ar    1  UNL1       -0.0002
     22 C          63.1661   87.8340   12.6116 C.ar    1  UNL1       -0.0027
     23 C          62.5982   84.0091   11.7187 C.ar    1  UNL1        0.0175
     24 C          63.1802   83.3339   10.5123 C.ar    1  UNL1        0.0064
     25 C          63.3452   81.8431   10.4937 C.ar    1  UNL1        0.0608
     26 C          62.9282   81.0275   11.6815 C.ar    1  UNL1        0.2610
     27 O          63.0932   79.5368   11.6630 O.2     1  UNL1       -0.2670
     28 N          62.3462   81.7028   12.8879 N.ar    1  UNL1       -0.2922
     29 C          61.9291   80.8872   14.0758 C.3     1  UNL1        0.1336
     30 C          62.1812   83.1935   12.9065 C.ar    1  UNL1        0.0783
     31 C          66.5443   93.2582   12.7028 C.3     1  UNL1        0.0715
     32 C          67.1638   92.4290   13.7884 C.3     1  UNL1        0.0922
     33 C          67.9041   91.6309   12.7563 C.3     1  UNL1        0.0294
     34 C          66.4236   93.2271   14.8204 C.3     1  UNL1        0.0294
     35 O          67.7834   91.5997   14.8739 O.3     1  UNL1       -0.3866
     36 H          68.3682   90.9344   14.4787 H       1  UNL1        0.2102
@<TRIPOS>BOND
     1    16    15    1
     2    16    17    1
     3    17    18   ar
     4    18    19   ar
     5    19    20   ar
     6    20    23    1
     7    23    24   ar
     8    24    25   ar
     9    25    26   ar
    10    26    27    2
    11    26    28   ar
    12    28    29    1
    13    28    30   ar
    14    20    21   ar
    15    21    22   ar
    16    16     1    1
    17     1     2    1
    18     2     3    1
    19     3     4    1
    20     4    31    1
    21    31    32    1
    22    32    33    1
    23    32    34    1
    24    32    35    1
    25     4     8    1
    26     8     9   ar
    27     9    10   ar
    28    10    11   ar
    29    11    12   ar
    30    12    13   ar
    31    13    14    1
    32     4     5    1
    33     5     6    1
    34     6     7    2
    35    22    17   ar
    36     6     1   am
    37    30    23   ar
    38    13     8   ar
    39    35    36    1
@<TRIPOS>MOLECULE
*****
 36 39 0 0 0
SMALL
GASTEIGER

@<TRIPOS>ATOM
      1 N          63.5157   90.6332   11.9923 N.am    1  UNL1       -0.2438
      2 C          64.1901   90.4920   13.3247 C.3     1  UNL1        0.1009
      3 C          65.4033   91.3151   13.6422 C.3     1  UNL1        0.0662
      4 C          65.9421   92.2793   12.6273 C.3     1  UNL1        0.1621
      5 O          65.2677   92.4205   11.2948 O.3     1  UNL1       -0.4374
      6 C          64.0545   91.5974   10.9774 C.2     1  UNL1        0.4051
      7 O          63.3801   91.7386    9.6450 O.2     1  UNL1       -0.2262
      8 C          66.9218   92.4996   13.7417 C.ar    1  UNL1        0.0413
      9 C          66.5086   93.2664   14.9628 C.ar    1  UNL1        0.0013
     10 C          67.4883   93.4867   16.0772 C.ar    1  UNL1       -0.0001
     11 C          68.8811   92.9401   15.9703 C.ar    1  UNL1        0.0023
     12 C          69.2942   92.1733   14.7491 C.ar    1  UNL1        0.0294
     13 C          68.3145   91.9530   13.6348 C.ar    1  UNL1        0.1393
     14 F          68.7276   91.1862   12.4136 F       1  UNL1       -0.2044
     15 C          61.0068   90.4846   11.3342 C.3     1  UNL1        0.0265
     16 C          62.3025   89.8101   11.6748 C.3     1  UNL1        0.1011
     17 C          62.3852   88.3125   11.6980 C.ar    1  UNL1       -0.0042
     18 C          61.5618   87.5011   10.7422 C.ar    1  UNL1       -0.0027
     19 C          61.6444   86.0036   10.7654 C.ar    1  UNL1       -0.0002
     20 C          62.5505   85.3175   11.7443 C.ar    1  UNL1        0.0014
     21 C          63.3739   86.1290   12.7001 C.ar    1  UNL1       -0.0002
     22 C          63.2912   87.6265   12.6769 C.ar    1  UNL1       -0.0027
     23 C          62.6331   83.8199   11.7674 C.ar    1  UNL1        0.0175
     24 C          63.2784   83.0867   10.6291 C.ar    1  UNL1        0.0064
     25 C          63.3611   81.5891   10.6522 C.ar    1  UNL1        0.0608
     26 C          62.7983   80.8248   11.8137 C.ar    1  UNL1        0.2610
     27 O          62.8809   79.3273   11.8369 O.2     1  UNL1       -0.2670
     28 N          62.1530   81.5581   12.9522 N.ar    1  UNL1       -0.2922
     29 C          61.5903   80.7938   14.1137 C.3     1  UNL1        0.1336
     30 C          62.0704   83.0556   12.9290 C.ar    1  UNL1        0.0783
     31 C          66.8211   93.3200   11.9994 C.3     1  UNL1        0.0715
     32 C          66.5577   93.7762   10.5950 C.3     1  UNL1        0.0922
     33 C          65.7466   94.9237   11.1198 C.3     1  UNL1        0.0294
     34 C          67.3687   92.6287   10.0701 C.3     1  UNL1        0.0294
     35 O          66.2942   94.2324    9.1906 O.3     1  UNL1       -0.3866
     36 H          65.7429   95.0304    9.2079 H       1  UNL1        0.2102
@<TRIPOS>BOND
     1    16    15    1
     2    16    17    1
     3    17    18   ar
     4    18    19   ar
     5    19    20   ar
     6    20    23    1
     7    23    24   ar
     8    24    25   ar
     9    25    26   ar
    10    26    27    2
    11    26    28   ar
    12    28    29    1
    13    28    30   ar
    14    20    21   ar
    15    21    22   ar
    16    16     1    1
    17     1     2    1
    18     2     3    1
    19     3     4    1
    20     4    31    1
    21    31    32    1
    22    32    33    1
    23    32    34    1
    24    32    35    1
    25     4     8    1
    26     8     9   ar
    27     9    10   ar
    28    10    11   ar
    29    11    12   ar
    30    12    13   ar
    31    13    14    1
    32     4     5    1
    33     5     6    1
    34     6     7    2
    35    22    17   ar
    36     6     1   am
    37    30    23   ar
    38    13     8   ar
    39    35    36    1
@<TRIPOS>MOLECULE
*****
 36 39 0 0 0
SMALL
GASTEIGER

@<TRIPOS>ATOM
      1 N          62.1482   87.2702   11.9775 N.am    1  UNL1       -0.2438
      2 C          61.7300   86.0814   11.1640 C.3     1  UNL1        0.1009
      3 C          62.2616   84.7192   11.4985 C.3     1  UNL1        0.0662
      4 C          63.2113   84.5458   12.6465 C.3     1  UNL1        0.1621
      5 O          63.6295   85.7346   13.4601 O.3     1  UNL1       -0.4374
      6 C          63.0979   87.0968   13.1256 C.2     1  UNL1        0.4051
      7 O          63.5161   88.2856   13.9391 O.2     1  UNL1       -0.2262
      8 C          63.1108   83.1254   12.1748 C.ar    1  UNL1        0.0413
      9 C          62.4602   82.0907   13.0443 C.ar    1  UNL1        0.0013
     10 C          62.3597   80.6703   12.5726 C.ar    1  UNL1       -0.0001
     11 C          62.9099   80.2848   11.2314 C.ar    1  UNL1        0.0023
     12 C          63.5606   81.3195   10.3620 C.ar    1  UNL1        0.0294
     13 C          63.6610   82.7399   10.8337 C.ar    1  UNL1        0.1393
     14 F          64.3117   83.7746    9.9643 F       1  UNL1       -0.2044
     15 C          60.1362   88.8680   11.5920 C.3     1  UNL1        0.0265
     16 C          61.6167   88.6324   11.6430 C.3     1  UNL1        0.1011
     17 C          62.5657   89.7589   11.3595 C.ar    1  UNL1       -0.0042
     18 C          62.6255   90.3619    9.9874 C.ar    1  UNL1       -0.0027
     19 C          63.5744   91.4884    9.7039 C.ar    1  UNL1       -0.0002
     20 C          64.4636   92.0119   10.7926 C.ar    1  UNL1        0.0014
     21 C          64.4039   91.4090   12.1648 C.ar    1  UNL1       -0.0002
     22 C          63.4549   90.2825   12.4482 C.ar    1  UNL1       -0.0027
     23 C          65.4126   93.1385   10.5091 C.ar    1  UNL1        0.0175
     24 C          66.4911   92.9698    9.4804 C.ar    1  UNL1        0.0064
     25 C          67.4401   94.0964    9.1969 C.ar    1  UNL1        0.0608
     26 C          67.3106   95.3916    9.9422 C.ar    1  UNL1        0.2610
     27 O          68.2595   96.5182    9.6588 O.2     1  UNL1       -0.2670
     28 N          66.2321   95.5603   10.9710 N.ar    1  UNL1       -0.2922
     29 C          66.1026   96.8556   11.7164 C.3     1  UNL1        0.1336
     30 C          65.2831   94.4338   11.2545 C.ar    1  UNL1        0.0783
     31 C          64.1261   83.8791   13.6308 C.3     1  UNL1        0.0715
     32 C          64.3991   84.5243   14.9571 C.3     1  UNL1        0.0922
     33 C          63.0073   84.1906   15.4060 C.3     1  UNL1        0.0294
     34 C          65.7909   84.8581   14.5082 C.3     1  UNL1        0.0294
     35 O          64.6721   85.1695   16.2834 O.3     1  UNL1       -0.3866
     36 H          63.8824   85.1051   16.8429 H       1  UNL1        0.2102
@<TRIPOS>BOND
     1    16    15    1
     2    16    17    1
     3    17    18   ar
     4    18    19   ar
     5    19    20   ar
     6    20    23    1
     7    23    24   ar
     8    24    25   ar
     9    25    26   ar
    10    26    27    2
    11    26    28   ar
    12    28    29    1
    13    28    30   ar
    14    20    21   ar
    15    21    22   ar
    16    16     1    1
    17     1     2    1
    18     2     3    1
    19     3     4    1
    20     4    31    1
    21    31    32    1
    22    32    33    1
    23    32    34    1
    24    32    35    1
    25     4     8    1
    26     8     9   ar
    27     9    10   ar
    28    10    11   ar
    29    11    12   ar
    30    12    13   ar
    31    13    14    1
    32     4     5    1
    33     5     6    1
    34     6     7    2
    35    22    17   ar
    36     6     1   am
    37    30    23   ar
    38    13     8   ar
    39    35    36    1
