@<TRIPOS>MOLECULE
*****
 29 32 0 0 0
SMALL
GASTEIGER

@<TRIPOS>ATOM
      1 C          62.4333   90.2573   11.3222 C.3     1  UNL1        0.0843
      2 C          62.8745   90.9770   10.0824 C.3     1  UNL1        0.0228
      3 C          64.0130   91.9516   10.1460 C.3     1  UNL1        0.0287
      4 C          64.7101   92.2065   11.4495 C.ar    1  UNL1       -0.0123
      5 C          64.2688   91.4868   12.6893 C.ar    1  UNL1       -0.0075
      6 C          65.1403   91.9395   13.8232 C.ar    1  UNL1        0.0595
      7 C          65.1682   91.5708   15.2768 C.ar    1  UNL1        0.0172
      8 C          66.1760   92.2015   16.1914 C.ar    1  UNL1        0.0030
      9 C          67.1559   93.2011   15.6522 C.ar    1  UNL1        0.0190
     10 C          67.1280   93.5698   14.1986 C.ar    1  UNL1        0.0798
     11 N          66.1202   92.9391   13.2840 N.ar    1  UNL1       -0.3089
     12 C          65.8543   93.1041   11.8170 C.ar    1  UNL1        0.0427
     13 C          63.1304   90.5122   12.6257 C.3     1  UNL1        0.0452
     14 C          60.1648   89.3843   12.2399 C.3     1  UNL1        0.1149
     15 N          61.2948   89.2826   11.2586 N.3     1  UNL1       -0.1551
     16 S          61.2863   88.2063   10.2138 S.O2    1  UNL1        0.0633
     17 O          62.3920   87.4958   10.9368 O.2     1  UNL1       -0.1528
     18 O          60.1806   88.9169    9.4909 O.2     1  UNL1       -0.1528
     19 C          61.2779   87.1302    9.1691 C.ar    1  UNL1        0.1223
     20 C          62.5123   86.3145    8.9225 C.ar    1  UNL1        0.0222
     21 C          62.5037   85.2383    7.8776 C.ar    1  UNL1        0.0310
     22 C          61.2608   84.9777    7.0793 C.ar    1  UNL1        0.1402
     23 F          61.2522   83.9015    6.0345 F       1  UNL1       -0.2042
     24 C          60.0263   85.7934    7.3260 C.ar    1  UNL1        0.0310
     25 C          60.0349   86.8696    8.3708 C.ar    1  UNL1        0.0222
     26 C          66.6016   94.0080   10.8818 C.3     1  UNL1        0.0854
     27 C          67.6218   93.4370    9.9421 C.2     1  UNL1        0.0562
     28 O          68.4827   92.2883   10.3775 O.co2   1  UNL1       -0.5488
     29 O          67.7813   94.0146    8.5670 O.co2   1  UNL1       -0.5488
@<TRIPOS>UNITY_ATOM_ATTR
28 1
charge -1
@<TRIPOS>BOND
     1    14    15    1
     2     1    15    1
     3     1     2    1
     4     2     3    1
     5     3     4    1
     6     4     5   ar
     7     5     6   ar
     8     6     7   ar
     9     7     8   ar
    10     8     9   ar
    11     9    10   ar
    12    10    11   ar
    13    11    12   ar
    14    12    26    1
    15    26    27    1
    16    27    28   ar
    17    27    29   ar
    18     5    13    1
    19    15    16    1
    20    16    17    2
    21    16    18    2
    22    16    19    1
    23    19    20   ar
    24    20    21   ar
    25    21    22   ar
    26    22    23    1
    27    22    24   ar
    28    24    25   ar
    29    13     1    1
    30    25    19   ar
    31    12     4   ar
    32    11     6   ar
@<TRIPOS>MOLECULE
*****
 29 32 0 0 0
SMALL
GASTEIGER

@<TRIPOS>ATOM
      1 C          62.4310   89.5844   11.3049 C.3     1  UNL1        0.0843
      2 C          62.6073   90.3646   10.0359 C.3     1  UNL1        0.0228
      3 C          63.5555   91.5261    9.9952 C.3     1  UNL1        0.0287
      4 C          64.3275   91.9075   11.2235 C.ar    1  UNL1       -0.0123
      5 C          64.1512   91.1273   12.4924 C.ar    1  UNL1       -0.0075
      6 C          65.0413   91.7334   13.5367 C.ar    1  UNL1        0.0595
      7 C          65.2842   91.3830   14.9747 C.ar    1  UNL1        0.0172
      8 C          66.2535   92.1874   15.7892 C.ar    1  UNL1        0.0030
      9 C          66.9799   93.3421   15.1656 C.ar    1  UNL1        0.0190
     10 C          66.7370   93.6925   13.7275 C.ar    1  UNL1        0.0798
     11 N          65.7677   92.8882   12.9131 N.ar    1  UNL1       -0.3089
     12 C          65.3265   92.9957   11.4834 C.ar    1  UNL1        0.0427
     13 C          63.2030   89.9658   12.5331 C.3     1  UNL1        0.0452
     14 C          60.0249   88.6539   11.6125 C.3     1  UNL1        0.1149
     15 N          61.4827   88.4228   11.3456 N.3     1  UNL1       -0.1551
     16 S          61.9924   87.0303   11.1194 S.O2    1  UNL1        0.0633
     17 O          62.8176   87.1295   12.3681 O.2     1  UNL1       -0.1528
     18 O          61.1671   86.9311    9.8707 O.2     1  UNL1       -0.1528
     19 C          62.5020   85.6378   10.8932 C.ar    1  UNL1        0.1223
     20 C          62.9716   85.2232    9.5303 C.ar    1  UNL1        0.0222
     21 C          63.4812   83.8307    9.3041 C.ar    1  UNL1        0.0310
     22 C          63.5211   82.8527   10.4408 C.ar    1  UNL1        0.1402
     23 F          64.0307   81.4602   10.2146 F       1  UNL1       -0.2042
     24 C          63.0515   83.2674   11.8038 C.ar    1  UNL1        0.0310
     25 C          62.5419   84.6599   12.0299 C.ar    1  UNL1        0.0222
     26 C          65.8011   94.0130   10.4885 C.3     1  UNL1        0.0854
     27 C          67.1060   93.8136    9.7762 C.2     1  UNL1        0.0562
     28 O          67.3691   94.5220    8.4804 O.co2   1  UNL1       -0.5488
     29 O          68.1479   92.9058   10.3596 O.co2   1  UNL1       -0.5488
@<TRIPOS>UNITY_ATOM_ATTR
28 1
charge -1
@<TRIPOS>BOND
     1    14    15    1
     2     1    15    1
     3     1     2    1
     4     2     3    1
     5     3     4    1
     6     4     5   ar
     7     5     6   ar
     8     6     7   ar
     9     7     8   ar
    10     8     9   ar
    11     9    10   ar
    12    10    11   ar
    13    11    12   ar
    14    12    26    1
    15    26    27    1
    16    27    28   ar
    17    27    29   ar
    18     5    13    1
    19    15    16    1
    20    16    17    2
    21    16    18    2
    22    16    19    1
    23    19    20   ar
    24    20    21   ar
    25    21    22   ar
    26    22    23    1
    27    22    24   ar
    28    24    25   ar
    29    13     1    1
    30    25    19   ar
    31    12     4   ar
    32    11     6   ar
@<TRIPOS>MOLECULE
*****
 29 32 0 0 0
SMALL
GASTEIGER

@<TRIPOS>ATOM
      1 C          62.1083   89.7140   12.2731 C.3     1  UNL1        0.0843
      2 C          62.6381   89.2891   13.6105 C.3     1  UNL1        0.0228
      3 C          63.8881   89.9144   14.1551 C.3     1  UNL1        0.0287
      4 C          64.6081   90.9647   13.3623 C.ar    1  UNL1       -0.0123
      5 C          64.0783   91.3896   12.0249 C.ar    1  UNL1       -0.0075
      6 C          64.9962   92.4409   11.4753 C.ar    1  UNL1        0.0595
      7 C          64.9747   93.2225   10.1952 C.ar    1  UNL1        0.0172
      8 C          66.0505   94.2290    9.9129 C.ar    1  UNL1        0.0030
      9 C          67.1477   94.4539   10.9107 C.ar    1  UNL1        0.0190
     10 C          67.1692   93.6723   12.1907 C.ar    1  UNL1        0.0798
     11 N          66.0934   92.6658   12.4730 N.ar    1  UNL1       -0.3089
     12 C          65.8536   91.7534   13.6392 C.ar    1  UNL1        0.0427
     13 C          62.8283   90.7642   11.4803 C.3     1  UNL1        0.0452
     14 C          59.5255   89.4365   12.3224 C.3     1  UNL1        0.1149
     15 N          60.8583   89.0886   11.7284 N.3     1  UNL1       -0.1551
     16 S          60.9411   88.1155   10.5900 S.O2    1  UNL1        0.0633
     17 O          61.3944   87.0451   11.5379 O.2     1  UNL1       -0.1528
     18 O          60.4878   89.1860    9.6420 O.2     1  UNL1       -0.1528
     19 C          61.0240   87.1425    9.4515 C.ar    1  UNL1        0.1223
     20 C          59.8319   86.9168    8.5694 C.ar    1  UNL1        0.0222
     21 C          59.9148   85.9437    7.4309 C.ar    1  UNL1        0.0310
     22 C          61.1898   85.1962    7.1744 C.ar    1  UNL1        0.1402
     23 F          61.2727   84.2232    6.0359 F       1  UNL1       -0.2042
     24 C          62.3819   85.4219    8.0565 C.ar    1  UNL1        0.0310
     25 C          62.2990   86.3950    9.1950 C.ar    1  UNL1        0.0222
     26 C          66.7090   91.6483   14.8669 C.3     1  UNL1        0.0854
     27 C          66.6091   92.6894   15.9421 C.2     1  UNL1        0.0562
     28 O          65.4341   92.6943   16.8745 O.co2   1  UNL1       -0.5488
     29 O          67.6842   93.7256   16.0850 O.co2   1  UNL1       -0.5488
@<TRIPOS>UNITY_ATOM_ATTR
28 1
charge -1
@<TRIPOS>BOND
     1    14    15    1
     2     1    15    1
     3     1     2    1
     4     2     3    1
     5     3     4    1
     6     4     5   ar
     7     5     6   ar
     8     6     7   ar
     9     7     8   ar
    10     8     9   ar
    11     9    10   ar
    12    10    11   ar
    13    11    12   ar
    14    12    26    1
    15    26    27    1
    16    27    28   ar
    17    27    29   ar
    18     5    13    1
    19    15    16    1
    20    16    17    2
    21    16    18    2
    22    16    19    1
    23    19    20   ar
    24    20    21   ar
    25    21    22   ar
    26    22    23    1
    27    22    24   ar
    28    24    25   ar
    29    13     1    1
    30    25    19   ar
    31    12     4   ar
    32    11     6   ar
@<TRIPOS>MOLECULE
*****
 29 32 0 0 0
SMALL
GASTEIGER

@<TRIPOS>ATOM
      1 C          63.4053   85.8172   12.9770 C.3     1  UNL1        0.0843
      2 C          63.8913   87.1328   13.5087 C.3     1  UNL1        0.0228
      3 C          63.4661   88.4114   12.8496 C.3     1  UNL1        0.0287
      4 C          62.5549   88.3742   11.6586 C.ar    1  UNL1       -0.0123
      5 C          62.0689   87.0585   11.1268 C.ar    1  UNL1       -0.0075
      6 C          61.1849   87.3336    9.9466 C.ar    1  UNL1        0.0595
      7 C          60.4271   86.4231    9.0264 C.ar    1  UNL1        0.0172
      8 C          59.6090   86.9984    7.9085 C.ar    1  UNL1        0.0030
      9 C          59.5486   88.4841    7.7109 C.ar    1  UNL1        0.0190
     10 C          60.3064   89.3945    8.6311 C.ar    1  UNL1        0.0798
     11 N          61.1245   88.8193    9.7490 N.ar    1  UNL1       -0.3089
     12 C          61.9713   89.4624   10.8070 C.ar    1  UNL1        0.0427
     13 C          62.4941   85.7800   11.7860 C.3     1  UNL1        0.0452
     14 C          64.5378   84.5757   14.9584 C.3     1  UNL1        0.1149
     15 N          63.8305   84.5385   13.6362 N.3     1  UNL1       -0.1551
     16 S          63.5484   83.2230   12.9731 S.O2    1  UNL1        0.0633
     17 O          62.4051   82.9927   13.9164 O.2     1  UNL1       -0.1528
     18 O          64.6918   83.4533   12.0298 O.2     1  UNL1       -0.1528
     19 C          63.2664   81.9075   12.3100 C.ar    1  UNL1        0.1223
     20 C          63.4401   81.7625   10.8272 C.ar    1  UNL1        0.0222
     21 C          63.1581   80.4469   10.1641 C.ar    1  UNL1        0.0310
     22 C          62.7023   79.2763   10.9838 C.ar    1  UNL1        0.1402
     23 F          62.4202   77.9607   10.3207 F       1  UNL1       -0.2042
     24 C          62.5285   79.4213   12.4667 C.ar    1  UNL1        0.0310
     25 C          62.8106   80.7369   13.1297 C.ar    1  UNL1        0.0222
     26 C          62.1950   90.9352   10.9826 C.3     1  UNL1        0.0854
     27 C          63.5282   91.4410   11.4479 C.2     1  UNL1        0.0562
     28 O          63.7771   91.6640   12.9103 O.co2   1  UNL1       -0.5488
     29 O          64.6127   91.7241   10.4510 O.co2   1  UNL1       -0.5488
@<TRIPOS>UNITY_ATOM_ATTR
28 1
charge -1
@<TRIPOS>BOND
     1    14    15    1
     2     1    15    1
     3     1     2    1
     4     2     3    1
     5     3     4    1
     6     4     5   ar
     7     5     6   ar
     8     6     7   ar
     9     7     8   ar
    10     8     9   ar
    11     9    10   ar
    12    10    11   ar
    13    11    12   ar
    14    12    26    1
    15    26    27    1
    16    27    28   ar
    17    27    29   ar
    18     5    13    1
    19    15    16    1
    20    16    17    2
    21    16    18    2
    22    16    19    1
    23    19    20   ar
    24    20    21   ar
    25    21    22   ar
    26    22    23    1
    27    22    24   ar
    28    24    25   ar
    29    13     1    1
    30    25    19   ar
    31    12     4   ar
    32    11     6   ar
@<TRIPOS>MOLECULE
*****
 29 32 0 0 0
SMALL
GASTEIGER

@<TRIPOS>ATOM
      1 C          64.4877   89.9995   13.7486 C.3     1  UNL1        0.0843
      2 C          64.8102   88.8514   14.6584 C.3     1  UNL1        0.0228
      3 C          64.2999   87.4770   14.3413 C.3     1  UNL1        0.0287
      4 C          63.4671   87.2506   13.1144 C.ar    1  UNL1       -0.0123
      5 C          63.1446   88.3987   12.2046 C.ar    1  UNL1       -0.0075
      6 C          62.3075   87.8746   11.0757 C.ar    1  UNL1        0.0595
      7 C          61.6974   88.5476    9.8820 C.ar    1  UNL1        0.0172
      8 C          60.8926   87.7485    8.9004 C.ar    1  UNL1        0.0030
      9 C          60.6977   86.2764    9.1125 C.ar    1  UNL1        0.0190
     10 C          61.3078   85.6034   10.3062 C.ar    1  UNL1        0.0798
     11 N          62.1126   86.4025   11.2878 N.ar    1  UNL1       -0.3089
     12 C          62.8293   86.0169   12.5478 C.ar    1  UNL1        0.0427
     13 C          63.6549   89.7732   12.5217 C.3     1  UNL1        0.0452
     14 C          64.9098   91.9019   15.4669 C.3     1  UNL1        0.1149
     15 N          64.9979   91.3740   14.0656 N.3     1  UNL1       -0.1551
     16 S          65.5963   92.2205   12.9814 S.O2    1  UNL1        0.0633
     17 O          64.2320   92.4347   12.3958 O.2     1  UNL1       -0.1528
     18 O          66.9606   92.0062   13.5671 O.2     1  UNL1       -0.1528
     19 C          66.1947   93.0669   11.8973 C.ar    1  UNL1        0.1223
     20 C          66.0840   94.5612   11.9652 C.ar    1  UNL1        0.0222
     21 C          66.6824   95.4076   10.8810 C.ar    1  UNL1        0.0310
     22 C          67.3915   94.7598    9.7289 C.ar    1  UNL1        0.1402
     23 F          67.9900   95.6061    8.6447 F       1  UNL1       -0.2042
     24 C          67.5022   93.2653    9.6610 C.ar    1  UNL1        0.0310
     25 C          66.9038   92.4189   10.7452 C.ar    1  UNL1        0.0222
     26 C          62.8964   84.6394   13.1376 C.3     1  UNL1        0.0854
     27 C          62.9384   84.4621   14.6264 C.2     1  UNL1        0.0562
     28 O          61.7459   84.8290   15.4593 O.co2   1  UNL1       -0.5488
     29 O          64.1727   83.9181   15.2826 O.co2   1  UNL1       -0.5488
@<TRIPOS>UNITY_ATOM_ATTR
28 1
charge -1
@<TRIPOS>BOND
     1    14    15    1
     2     1    15    1
     3     1     2    1
     4     2     3    1
     5     3     4    1
     6     4     5   ar
     7     5     6   ar
     8     6     7   ar
     9     7     8   ar
    10     8     9   ar
    11     9    10   ar
    12    10    11   ar
    13    11    12   ar
    14    12    26    1
    15    26    27    1
    16    27    28   ar
    17    27    29   ar
    18     5    13    1
    19    15    16    1
    20    16    17    2
    21    16    18    2
    22    16    19    1
    23    19    20   ar
    24    20    21   ar
    25    21    22   ar
    26    22    23    1
    27    22    24   ar
    28    24    25   ar
    29    13     1    1
    30    25    19   ar
    31    12     4   ar
    32    11     6   ar
@<TRIPOS>MOLECULE
*****
 29 32 0 0 0
SMALL
GASTEIGER

@<TRIPOS>ATOM
      1 C          63.8482   87.6860   14.4097 C.3     1  UNL1        0.0843
      2 C          63.2834   87.9026   13.0371 C.3     1  UNL1        0.0228
      3 C          63.5661   89.1795   12.3027 C.3     1  UNL1        0.0287
      4 C          64.4137   90.2399   12.9408 C.ar    1  UNL1       -0.0123
      5 C          64.9785   90.0234   14.3135 C.ar    1  UNL1       -0.0075
      6 C          65.7737   91.2398   14.6848 C.ar    1  UNL1        0.0595
      7 C          66.5551   91.5909   15.9161 C.ar    1  UNL1        0.0172
      8 C          67.2631   92.9103   16.0042 C.ar    1  UNL1        0.0030
      9 C          67.1897   93.8787   14.8611 C.ar    1  UNL1        0.0190
     10 C          66.4083   93.5277   13.6298 C.ar    1  UNL1        0.0798
     11 N          65.7003   92.2083   13.5416 N.ar    1  UNL1       -0.3089
     12 C          64.8598   91.5902   12.4638 C.ar    1  UNL1        0.0427
     13 C          64.6958   88.7464   15.0479 C.3     1  UNL1        0.0452
     14 C          63.4269   86.4179   16.6378 C.3     1  UNL1        0.1149
     15 N          63.5655   86.4090   15.1443 N.3     1  UNL1       -0.1551
     16 S          63.4215   85.1233   14.3852 S.O2    1  UNL1        0.0633
     17 O          61.9713   85.0624   14.7636 O.2     1  UNL1       -0.1528
     18 O          64.8718   85.1842   14.0068 O.2     1  UNL1       -0.1528
     19 C          63.2775   83.8376   13.6262 C.ar    1  UNL1        0.1223
     20 C          63.9534   83.6714   12.2975 C.ar    1  UNL1        0.0222
     21 C          63.8094   82.3856   11.5385 C.ar    1  UNL1        0.0310
     22 C          62.9895   81.2661   12.1081 C.ar    1  UNL1        0.1402
     23 F          62.8455   79.9803   11.3490 F       1  UNL1       -0.2042
     24 C          62.3136   81.4324   13.4368 C.ar    1  UNL1        0.0310
     25 C          62.4576   82.7181   14.1959 C.ar    1  UNL1        0.0222
     26 C          64.5243   92.2133   11.1412 C.3     1  UNL1        0.0854
     27 C          65.5030   93.1353   10.4767 C.2     1  UNL1        0.0562
     28 O          65.1958   94.5992   10.3624 O.co2   1  UNL1       -0.5488
     29 O          66.7890   92.5938    9.9262 O.co2   1  UNL1       -0.5488
@<TRIPOS>UNITY_ATOM_ATTR
28 1
charge -1
@<TRIPOS>BOND
     1    14    15    1
     2     1    15    1
     3     1     2    1
     4     2     3    1
     5     3     4    1
     6     4     5   ar
     7     5     6   ar
     8     6     7   ar
     9     7     8   ar
    10     8     9   ar
    11     9    10   ar
    12    10    11   ar
    13    11    12   ar
    14    12    26    1
    15    26    27    1
    16    27    28   ar
    17    27    29   ar
    18     5    13    1
    19    15    16    1
    20    16    17    2
    21    16    18    2
    22    16    19    1
    23    19    20   ar
    24    20    21   ar
    25    21    22   ar
    26    22    23    1
    27    22    24   ar
    28    24    25   ar
    29    13     1    1
    30    25    19   ar
    31    12     4   ar
    32    11     6   ar
@<TRIPOS>MOLECULE
*****
 29 32 0 0 0
SMALL
GASTEIGER

@<TRIPOS>ATOM
      1 C          63.9526   89.9509   12.9927 C.3     1  UNL1        0.0843
      2 C          64.2703   88.6587   13.6849 C.3     1  UNL1        0.0228
      3 C          63.6711   87.3757   13.1900 C.3     1  UNL1        0.0287
      4 C          62.7542   87.3850   12.0029 C.ar    1  UNL1       -0.0123
      5 C          62.4365   88.6773   11.3107 C.ar    1  UNL1       -0.0075
      6 C          61.5058   88.3773   10.1732 C.ar    1  UNL1        0.0595
      7 C          60.8596   89.2588    9.1459 C.ar    1  UNL1        0.0172
      8 C          59.9559   88.6625    8.1078 C.ar    1  UNL1        0.0030
      9 C          59.6984   87.1848    8.0969 C.ar    1  UNL1        0.0190
     10 C          60.3447   86.3034    9.1242 C.ar    1  UNL1        0.0798
     11 N          61.2484   86.8996   10.1623 N.ar    1  UNL1       -0.3089
     12 C          62.0199   86.2864   11.2931 C.ar    1  UNL1        0.0427
     13 C          63.0357   89.9602   11.8056 C.3     1  UNL1        0.0452
     14 C          64.4286   91.6101   14.9345 C.3     1  UNL1        0.1149
     15 N          64.5518   91.2340   13.4877 N.3     1  UNL1       -0.1551
     16 S          65.2741   92.1407   12.5358 S.O2    1  UNL1        0.0633
     17 O          66.5634   91.8644   13.2509 O.2     1  UNL1       -0.1528
     18 O          63.9847   92.4170   11.8207 O.2     1  UNL1       -0.1528
     19 C          65.9963   93.0474   11.5839 C.ar    1  UNL1        0.1223
     20 C          65.9123   94.5352   11.7554 C.ar    1  UNL1        0.0222
     21 C          66.6345   95.4419   10.8034 C.ar    1  UNL1        0.0310
     22 C          67.4409   94.8609    9.6799 C.ar    1  UNL1        0.1402
     23 F          68.1631   95.7675    8.7279 F       1  UNL1       -0.2042
     24 C          67.5249   93.3730    9.5084 C.ar    1  UNL1        0.0310
     25 C          66.8026   92.4663   10.4604 C.ar    1  UNL1        0.0222
     26 C          62.0515   84.8301   11.6513 C.3     1  UNL1        0.0854
     27 C          62.9118   83.8836   10.8679 C.2     1  UNL1        0.0562
     28 O          63.5720   84.3430    9.6017 O.co2   1  UNL1       -0.5488
     29 O          63.1119   82.4775   11.3505 O.co2   1  UNL1       -0.5488
@<TRIPOS>UNITY_ATOM_ATTR
28 1
charge -1
@<TRIPOS>BOND
     1    14    15    1
     2     1    15    1
     3     1     2    1
     4     2     3    1
     5     3     4    1
     6     4     5   ar
     7     5     6   ar
     8     6     7   ar
     9     7     8   ar
    10     8     9   ar
    11     9    10   ar
    12    10    11   ar
    13    11    12   ar
    14    12    26    1
    15    26    27    1
    16    27    28   ar
    17    27    29   ar
    18     5    13    1
    19    15    16    1
    20    16    17    2
    21    16    18    2
    22    16    19    1
    23    19    20   ar
    24    20    21   ar
    25    21    22   ar
    26    22    23    1
    27    22    24   ar
    28    24    25   ar
    29    13     1    1
    30    25    19   ar
    31    12     4   ar
    32    11     6   ar
@<TRIPOS>MOLECULE
*****
 29 32 0 0 0
SMALL
GASTEIGER

@<TRIPOS>ATOM
      1 C          62.9273   89.3222   12.1871 C.3     1  UNL1        0.0843
      2 C          63.4227   89.0830   13.5826 C.3     1  UNL1        0.0228
      3 C          64.3925   90.0410   14.2086 C.3     1  UNL1        0.0287
      4 C          64.8668   91.2381   13.4392 C.ar    1  UNL1       -0.0123
      5 C          64.3714   91.4772   12.0437 C.ar    1  UNL1       -0.0075
      6 C          65.0112   92.7344   11.5337 C.ar    1  UNL1        0.0595
      7 C          64.8977   93.4589   10.2252 C.ar    1  UNL1        0.0172
      8 C          65.6751   94.7212    9.9970 C.ar    1  UNL1        0.0030
      9 C          66.5659   95.2591   11.0773 C.ar    1  UNL1        0.0190
     10 C          66.6794   94.5346   12.3858 C.ar    1  UNL1        0.0798
     11 N          65.9021   93.2723   12.6140 N.ar    1  UNL1       -0.3089
     12 C          65.8128   92.3475   13.7916 C.ar    1  UNL1        0.0427
     13 C          63.4017   90.5192   11.4177 C.3     1  UNL1        0.0452
     14 C          60.5619   88.8115   11.2416 C.3     1  UNL1        0.1149
     15 N          61.9576   88.3642   11.5610 N.3     1  UNL1       -0.1551
     16 S          62.3835   86.9590   11.2544 S.O2    1  UNL1        0.0633
     17 O          62.7347   86.7505   12.6977 O.2     1  UNL1       -0.1528
     18 O          62.0323   87.1675    9.8110 O.2     1  UNL1       -0.1528
     19 C          62.8094   85.5539   10.9477 C.ar    1  UNL1        0.1223
     20 C          63.0696   85.1417    9.5291 C.ar    1  UNL1        0.0222
     21 C          63.4956   83.7366    9.2225 C.ar    1  UNL1        0.0310
     22 C          63.6613   82.7434   10.3344 C.ar    1  UNL1        0.1402
     23 F          64.0872   81.3382   10.0277 F       1  UNL1       -0.2042
     24 C          63.4010   83.1556   11.7530 C.ar    1  UNL1        0.0310
     25 C          62.9751   84.5608   12.0597 C.ar    1  UNL1        0.0222
     26 C          66.5416   92.5046   15.0932 C.3     1  UNL1        0.0854
     27 C          68.0322   92.3449   15.1422 C.2     1  UNL1        0.0562
     28 O          68.8158   92.2239   13.8689 O.co2   1  UNL1       -0.5488
     29 O          68.7394   92.3063   16.4645 O.co2   1  UNL1       -0.5488
@<TRIPOS>UNITY_ATOM_ATTR
28 1
charge -1
@<TRIPOS>BOND
     1    14    15    1
     2     1    15    1
     3     1     2    1
     4     2     3    1
     5     3     4    1
     6     4     5   ar
     7     5     6   ar
     8     6     7   ar
     9     7     8   ar
    10     8     9   ar
    11     9    10   ar
    12    10    11   ar
    13    11    12   ar
    14    12    26    1
    15    26    27    1
    16    27    28   ar
    17    27    29   ar
    18     5    13    1
    19    15    16    1
    20    16    17    2
    21    16    18    2
    22    16    19    1
    23    19    20   ar
    24    20    21   ar
    25    21    22   ar
    26    22    23    1
    27    22    24   ar
    28    24    25   ar
    29    13     1    1
    30    25    19   ar
    31    12     4   ar
    32    11     6   ar
@<TRIPOS>MOLECULE
*****
 29 32 0 0 0
SMALL
GASTEIGER

@<TRIPOS>ATOM
      1 C          63.2725   85.8880   13.3674 C.3     1  UNL1        0.0843
      2 C          62.4273   85.9773   12.1314 C.3     1  UNL1        0.0228
      3 C          62.2931   87.2842   11.4074 C.3     1  UNL1        0.0287
      4 C          63.0041   88.5017   11.9194 C.ar    1  UNL1       -0.0123
      5 C          63.8493   88.4124   13.1554 C.ar    1  UNL1       -0.0075
      6 C          64.4272   89.7709   13.4210 C.ar    1  UNL1        0.0595
      7 C          65.3348   90.2820   14.5004 C.ar    1  UNL1        0.0172
      8 C          65.7543   91.7221   14.5078 C.ar    1  UNL1        0.0030
      9 C          65.2663   92.6511   13.4360 C.ar    1  UNL1        0.0190
     10 C          64.3587   92.1399   12.3566 C.ar    1  UNL1        0.0798
     11 N          63.9392   90.6998   12.3491 N.ar    1  UNL1       -0.3089
     12 C          63.0597   89.9154   11.4212 C.ar    1  UNL1        0.0427
     13 C          63.9835   87.1055   13.8794 C.3     1  UNL1        0.0452
     14 C          63.7013   84.5654   15.5621 C.3     1  UNL1        0.1149
     15 N          63.4068   84.5811   14.0914 N.3     1  UNL1       -0.1551
     16 S          63.2465   83.2901   13.3447 S.O2    1  UNL1        0.0633
     17 O          62.0204   82.9766   14.1500 O.2     1  UNL1       -0.1528
     18 O          64.4726   83.6037   12.5394 O.2     1  UNL1       -0.1528
     19 C          63.0862   81.9992   12.5980 C.ar    1  UNL1        0.1223
     20 C          63.3377   81.9514   11.1200 C.ar    1  UNL1        0.0222
     21 C          63.1774   80.6604   10.3733 C.ar    1  UNL1        0.0310
     22 C          62.7657   79.4171   11.1045 C.ar    1  UNL1        0.1402
     23 F          62.6054   78.1260   10.3578 F       1  UNL1       -0.2042
     24 C          62.5142   79.4649   12.5826 C.ar    1  UNL1        0.0310
     25 C          62.6745   80.7559   13.3293 C.ar    1  UNL1        0.0222
     26 C          62.3588   90.4508   10.2078 C.3     1  UNL1        0.0854
     27 C          60.9153   90.1207    9.9688 C.2     1  UNL1        0.0562
     28 O          59.8483   90.7869   10.7861 O.co2   1  UNL1       -0.5488
     29 O          60.5386   89.1245    8.9126 O.co2   1  UNL1       -0.5488
@<TRIPOS>UNITY_ATOM_ATTR
28 1
charge -1
@<TRIPOS>BOND
     1    14    15    1
     2     1    15    1
     3     1     2    1
     4     2     3    1
     5     3     4    1
     6     4     5   ar
     7     5     6   ar
     8     6     7   ar
     9     7     8   ar
    10     8     9   ar
    11     9    10   ar
    12    10    11   ar
    13    11    12   ar
    14    12    26    1
    15    26    27    1
    16    27    28   ar
    17    27    29   ar
    18     5    13    1
    19    15    16    1
    20    16    17    2
    21    16    18    2
    22    16    19    1
    23    19    20   ar
    24    20    21   ar
    25    21    22   ar
    26    22    23    1
    27    22    24   ar
    28    24    25   ar
    29    13     1    1
    30    25    19   ar
    31    12     4   ar
    32    11     6   ar
