@<TRIPOS>MOLECULE
*****
 32 35 0 0 0
SMALL
GASTEIGER

@<TRIPOS>ATOM
      1 N          62.4169   87.9564   11.6366 N.ar    1  UNL1       -0.3068
      2 C          62.0909   88.3048   10.2145 C.ar    1  UNL1        0.1142
      3 C          62.6739   89.6558    9.9229 C.ar    1  UNL1        0.0515
      4 C          63.3602   90.1422   11.1648 C.ar    1  UNL1        0.0871
      5 C          63.2014   89.0920   12.2240 C.ar    1  UNL1        0.1342
      6 C          63.7916   89.3054   13.5863 C.ar    1  UNL1        0.2816
      7 O          63.6327   88.2552   14.6455 O.2     1  UNL1       -0.2652
      8 N          64.5407   90.5691   13.8896 N.ar    1  UNL1       -0.2455
      9 C          65.1309   90.7825   15.2520 C.3     1  UNL1        0.1383
     10 C          64.6995   91.6193   12.8305 C.ar    1  UNL1        0.3339
     11 O          65.4487   92.8831   13.1338 O.2     1  UNL1       -0.2462
     12 N          64.1093   91.4059   11.4681 N.ar    1  UNL1       -0.2776
     13 C          64.2682   92.4562   10.4090 C.3     1  UNL1        0.1351
     14 N          61.3177   87.4520    9.2529 N.pl3   1  UNL1       -0.2932
     15 C          59.8372   87.6422    9.1047 C.3     1  UNL1        0.0922
     16 C          59.0640   86.7894    8.1430 C.3     1  UNL1        0.0228
     17 C          59.7712   85.7463    7.3295 C.3     1  UNL1        0.0177
     18 C          61.2517   85.5560    7.4777 C.3     1  UNL1        0.0575
     19 C          62.6298   85.0029    7.2664 C.3     1  UNL1        0.0173
     20 N          60.9571   84.5111    6.4427 N.3     1  UNL1       -0.3219
     21 C          62.0249   86.4089    8.4394 C.3     1  UNL1        0.1062
     22 H          59.9598   84.5162    6.2286 H       1  UNL1        0.1188
     23 H          61.2234   83.5937    6.8003 H       1  UNL1        0.1188
     24 C          62.0268   86.6940   12.3467 C.3     1  UNL1        0.1338
     25 C          63.4276   85.5019   14.7167 C.3     1  UNL1        0.0308
     26 C          63.5561   84.8585   13.3678 C.ar    1  UNL1       -0.0238
     27 C          64.3849   83.6191   13.2038 C.ar    1  UNL1       -0.0022
     28 C          64.5133   82.9757   11.8550 C.ar    1  UNL1        0.0293
     29 C          63.8129   83.5718   10.6700 C.ar    1  UNL1        0.1399
     30 F          63.9414   82.9284    9.3210 F       1  UNL1       -0.2042
     31 C          62.9841   84.8112   10.8339 C.ar    1  UNL1        0.0269
     32 C          62.8556   85.4546   12.1828 C.ar    1  UNL1       -0.0013
@<TRIPOS>BOND
     1    25    26    1
     2    26    27   ar
     3    27    28   ar
     4    28    29   ar
     5    29    30    1
     6    29    31   ar
     7    31    32   ar
     8    32    24    1
     9    24     1    1
    10     1     2   ar
    11     2    14    1
    12    14    15    1
    13    15    16    1
    14    16    17    1
    15    17    18    1
    16    18    19    1
    17    18    20    1
    18    18    21    1
    19     2     3   ar
    20     3     4   ar
    21     4     5   ar
    22     5     6   ar
    23     6     7    2
    24     6     8   ar
    25     8     9    1
    26     8    10   ar
    27    10    11    2
    28    10    12   ar
    29    12    13    1
    30    32    26   ar
    31     5     1   ar
    32    21    14    1
    33    12     4   ar
    34    20    22    1
    35    20    23    1
@<TRIPOS>MOLECULE
*****
 32 35 0 0 0
SMALL
GASTEIGER

@<TRIPOS>ATOM
      1 N          63.9884   89.5393   13.0650 N.ar    1  UNL1       -0.3068
      2 C          64.3016   89.3202   14.5155 C.ar    1  UNL1        0.1142
      3 C          65.0604   90.5151   15.0116 C.ar    1  UNL1        0.0515
      4 C          65.2163   91.4729   13.8677 C.ar    1  UNL1        0.0871
      5 C          64.5537   90.8698   12.6646 C.ar    1  UNL1        0.1342
      6 C          64.5508   91.6101   11.3601 C.ar    1  UNL1        0.2816
      7 O          63.8882   91.0071   10.1570 O.2     1  UNL1       -0.2652
      8 N          65.2104   92.9534   11.2585 N.ar    1  UNL1       -0.2455
      9 C          65.2074   93.6937    9.9539 C.3     1  UNL1        0.1383
     10 C          65.8729   93.5565   12.4615 C.ar    1  UNL1        0.3339
     11 O          66.5326   94.8999   12.3600 O.2     1  UNL1       -0.2462
     12 N          65.8759   92.8162   13.7662 N.ar    1  UNL1       -0.2776
     13 C          66.5385   93.4193   14.9692 C.3     1  UNL1        0.1351
     14 N          63.9224   88.1172   15.3273 N.pl3   1  UNL1       -0.2932
     15 C          63.1475   88.2854   16.6005 C.3     1  UNL1        0.0922
     16 C          62.7684   87.0823   17.4123 C.3     1  UNL1        0.0228
     17 C          63.1642   85.7111   16.9509 C.3     1  UNL1        0.0177
     18 C          63.9391   85.5428   15.6776 C.3     1  UNL1        0.0575
     19 C          64.6705   84.8764   14.5503 C.3     1  UNL1        0.0173
     20 N          63.8140   84.1083   16.0979 N.3     1  UNL1       -0.3219
     21 C          64.3182   86.7459   14.8658 C.3     1  UNL1        0.1062
     22 H          63.2953   84.0549   16.9745 H       1  UNL1        0.1188
     23 H          64.7438   83.7099   16.2281 H       1  UNL1        0.1188
     24 C          63.2411   88.5940   12.1717 C.3     1  UNL1        0.1338
     25 C          62.5921   87.4301    9.4839 C.3     1  UNL1        0.0308
     26 C          61.7081   88.4870   10.0768 C.ar    1  UNL1       -0.0238
     27 C          60.4996   88.9620    9.3258 C.ar    1  UNL1       -0.0022
     28 C          59.6157   90.0188    9.9186 C.ar    1  UNL1        0.0293
     29 C          59.9402   90.6008   11.2626 C.ar    1  UNL1        0.1399
     30 F          59.0562   91.6578   11.8554 F       1  UNL1       -0.2042
     31 C          61.1487   90.1259   12.0136 C.ar    1  UNL1        0.0269
     32 C          62.0327   89.0690   11.4207 C.ar    1  UNL1       -0.0013
@<TRIPOS>BOND
     1    25    26    1
     2    26    27   ar
     3    27    28   ar
     4    28    29   ar
     5    29    30    1
     6    29    31   ar
     7    31    32   ar
     8    32    24    1
     9    24     1    1
    10     1     2   ar
    11     2    14    1
    12    14    15    1
    13    15    16    1
    14    16    17    1
    15    17    18    1
    16    18    19    1
    17    18    20    1
    18    18    21    1
    19     2     3   ar
    20     3     4   ar
    21     4     5   ar
    22     5     6   ar
    23     6     7    2
    24     6     8   ar
    25     8     9    1
    26     8    10   ar
    27    10    11    2
    28    10    12   ar
    29    12    13    1
    30    32    26   ar
    31     5     1   ar
    32    21    14    1
    33    12     4   ar
    34    20    22    1
    35    20    23    1
@<TRIPOS>MOLECULE
*****
 32 35 0 0 0
SMALL
GASTEIGER

@<TRIPOS>ATOM
      1 N          63.3003   85.9936   12.6133 N.ar    1  UNL1       -0.3068
      2 C          62.7709   84.6915   12.0895 C.ar    1  UNL1        0.1142
      3 C          61.8359   84.9935   10.9562 C.ar    1  UNL1        0.0515
      4 C          61.7874   86.4823   10.7795 C.ar    1  UNL1        0.0871
      5 C          62.6924   87.1004   11.8037 C.ar    1  UNL1        0.1342
      6 C          62.8461   88.5911   11.8667 C.ar    1  UNL1        0.2816
      7 O          63.7511   89.2092   12.8909 O.2     1  UNL1       -0.2652
      8 N          62.0947   89.4638   10.9055 N.ar    1  UNL1       -0.2455
      9 C          62.2484   90.9546   10.9686 C.3     1  UNL1        0.1383
     10 C          61.1898   88.8458    9.8814 C.ar    1  UNL1        0.3339
     11 O          60.4384   89.7185    8.9201 O.2     1  UNL1       -0.2462
     12 N          61.0361   87.3549    9.8183 N.ar    1  UNL1       -0.2776
     13 C          60.1310   86.7369    8.7941 C.3     1  UNL1        0.1351
     14 N          63.1160   83.3269   12.6081 N.pl3   1  UNL1       -0.2932
     15 C          64.5255   82.8227   12.5129 C.3     1  UNL1        0.0922
     16 C          64.8705   81.4582   13.0315 C.3     1  UNL1        0.0228
     17 C          63.8061   80.5978   13.6453 C.3     1  UNL1        0.0177
     18 C          62.3966   81.1020   13.7405 C.3     1  UNL1        0.0575
     19 C          60.9301   81.1364   14.0536 C.3     1  UNL1        0.0173
     20 N          62.2323   79.7494   14.3678 N.3     1  UNL1       -0.3219
     21 C          62.0516   82.4666   13.2219 C.3     1  UNL1        0.1062
     22 H          63.1313   79.2675   14.3771 H       1  UNL1        0.1188
     23 H          61.5597   79.2040   13.8288 H       1  UNL1        0.1188
     24 C          64.2676   86.1597   13.7476 C.3     1  UNL1        0.1338
     25 C          63.3454   84.1541   15.7792 C.3     1  UNL1        0.0308
     26 C          63.3177   85.6181   16.1045 C.ar    1  UNL1       -0.0238
     27 C          62.8290   86.0794   17.4455 C.ar    1  UNL1       -0.0022
     28 C          62.8013   87.5433   17.7708 C.ar    1  UNL1        0.0293
     29 C          63.2624   88.5462   16.7550 C.ar    1  UNL1        0.1399
     30 F          63.2347   90.0103   17.0802 F       1  UNL1       -0.2042
     31 C          63.7511   88.0850   15.4139 C.ar    1  UNL1        0.0269
     32 C          63.7788   86.6209   15.0887 C.ar    1  UNL1       -0.0013
@<TRIPOS>BOND
     1    25    26    1
     2    26    27   ar
     3    27    28   ar
     4    28    29   ar
     5    29    30    1
     6    29    31   ar
     7    31    32   ar
     8    32    24    1
     9    24     1    1
    10     1     2   ar
    11     2    14    1
    12    14    15    1
    13    15    16    1
    14    16    17    1
    15    17    18    1
    16    18    19    1
    17    18    20    1
    18    18    21    1
    19     2     3   ar
    20     3     4   ar
    21     4     5   ar
    22     5     6   ar
    23     6     7    2
    24     6     8   ar
    25     8     9    1
    26     8    10   ar
    27    10    11    2
    28    10    12   ar
    29    12    13    1
    30    32    26   ar
    31     5     1   ar
    32    21    14    1
    33    12     4   ar
    34    20    22    1
    35    20    23    1
@<TRIPOS>MOLECULE
*****
 32 35 0 0 0
SMALL
GASTEIGER

@<TRIPOS>ATOM
      1 N          63.6451   89.9365   13.1410 N.ar    1  UNL1       -0.3068
      2 C          64.3602   89.4571   14.3694 C.ar    1  UNL1        0.1142
      3 C          65.5832   90.3056   14.5546 C.ar    1  UNL1        0.0515
      4 C          65.6239   91.3093   13.4407 C.ar    1  UNL1        0.0871
      5 C          64.4261   91.0812   12.5670 C.ar    1  UNL1        0.1342
      6 C          64.2014   91.9454   11.3618 C.ar    1  UNL1        0.2816
      7 O          63.0036   91.7173   10.4881 O.2     1  UNL1       -0.2652
      8 N          65.1745   93.0377   11.0301 N.ar    1  UNL1       -0.2455
      9 C          64.9497   93.9018    9.8248 C.3     1  UNL1        0.1383
     10 C          66.3722   93.2658   11.9036 C.ar    1  UNL1        0.3339
     11 O          67.3454   94.3581   11.5720 O.2     1  UNL1       -0.2462
     12 N          66.5970   92.4016   13.1090 N.ar    1  UNL1       -0.2776
     13 C          67.7949   92.6298   13.9826 C.3     1  UNL1        0.1351
     14 N          63.9281   88.3275   15.2567 N.pl3   1  UNL1       -0.2932
     15 C          63.1002   88.6062   16.4761 C.3     1  UNL1        0.0922
     16 C          62.6682   87.4765   17.3634 C.3     1  UNL1        0.0228
     17 C          63.0640   86.0683   17.0314 C.3     1  UNL1        0.0177
     18 C          63.8919   85.7897   15.8120 C.3     1  UNL1        0.0575
     19 C          64.6627   85.0267   14.7758 C.3     1  UNL1        0.0173
     20 N          63.7276   84.3951   16.3394 N.3     1  UNL1       -0.3219
     21 C          64.3239   86.9193   14.9247 C.3     1  UNL1        0.1062
     22 H          63.1699   84.4181   17.1932 H       1  UNL1        0.1188
     23 H          64.6449   83.9983   16.5430 H       1  UNL1        0.1188
     24 C          62.3724   89.3704   12.5844 C.3     1  UNL1        0.1338
     25 C          61.4685   89.5948    9.7326 C.3     1  UNL1        0.0308
     26 C          61.9631   88.2813   10.2614 C.ar    1  UNL1       -0.0238
     27 C          62.0059   87.0798    9.3643 C.ar    1  UNL1       -0.0022
     28 C          62.5006   85.7662    9.8931 C.ar    1  UNL1        0.0293
     29 C          62.9526   85.6540   11.3190 C.ar    1  UNL1        0.1399
     30 F          63.4473   84.3403   11.8478 F       1  UNL1       -0.2042
     31 C          62.9098   86.8554   12.2161 C.ar    1  UNL1        0.0269
     32 C          62.4151   88.1690   11.6873 C.ar    1  UNL1       -0.0013
@<TRIPOS>BOND
     1    25    26    1
     2    26    27   ar
     3    27    28   ar
     4    28    29   ar
     5    29    30    1
     6    29    31   ar
     7    31    32   ar
     8    32    24    1
     9    24     1    1
    10     1     2   ar
    11     2    14    1
    12    14    15    1
    13    15    16    1
    14    16    17    1
    15    17    18    1
    16    18    19    1
    17    18    20    1
    18    18    21    1
    19     2     3   ar
    20     3     4   ar
    21     4     5   ar
    22     5     6   ar
    23     6     7    2
    24     6     8   ar
    25     8     9    1
    26     8    10   ar
    27    10    11    2
    28    10    12   ar
    29    12    13    1
    30    32    26   ar
    31     5     1   ar
    32    21    14    1
    33    12     4   ar
    34    20    22    1
    35    20    23    1
@<TRIPOS>MOLECULE
*****
 32 35 0 0 0
SMALL
GASTEIGER

@<TRIPOS>ATOM
      1 N          64.1035   88.7627   13.5353 N.ar    1  UNL1       -0.3068
      2 C          64.2166   90.2582   13.5048 C.ar    1  UNL1        0.1142
      3 C          63.3954   90.7619   12.3551 C.ar    1  UNL1        0.0515
      4 C          62.7748   89.5777   11.6749 C.ar    1  UNL1        0.0871
      5 C          63.2124   88.3422   12.4043 C.ar    1  UNL1        0.1342
      6 C          62.7430   86.9938   11.9444 C.ar    1  UNL1        0.2816
      7 O          63.1806   85.7583   12.6737 O.2     1  UNL1       -0.2652
      8 N          61.8359   86.8810   10.7551 N.ar    1  UNL1       -0.2455
      9 C          61.3664   85.5326   10.2952 C.3     1  UNL1        0.1383
     10 C          61.3983   88.1164   10.0257 C.ar    1  UNL1        0.3339
     11 O          60.4911   88.0036    8.8364 O.2     1  UNL1       -0.2462
     12 N          61.8677   89.4649   10.4856 N.ar    1  UNL1       -0.2776
     13 C          61.4300   90.7004    9.7562 C.3     1  UNL1        0.1351
     14 N          65.0113   91.1018   14.4570 N.pl3   1  UNL1       -0.2932
     15 C          64.3761   91.6126   15.7162 C.3     1  UNL1        0.0922
     16 C          65.1709   92.4563   16.6683 C.3     1  UNL1        0.0228
     17 C          66.6010   92.7890   16.3614 C.3     1  UNL1        0.0177
     18 C          67.2362   92.2782   15.1023 C.3     1  UNL1        0.0575
     19 C          68.2725   92.0304   14.0465 C.3     1  UNL1        0.0173
     20 N          68.3909   93.0357   15.6878 N.3     1  UNL1       -0.3219
     21 C          66.4414   91.4345   14.1501 C.3     1  UNL1        0.1062
     22 H          68.1086   93.4544   16.5740 H       1  UNL1        0.1188
     23 H          68.6786   93.7702   15.0411 H       1  UNL1        0.1188
     24 C          64.7653   87.8484   14.5232 C.3     1  UNL1        0.1338
     25 C          63.2453   89.0314   16.8233 C.3     1  UNL1        0.0308
     26 C          63.1713   87.5576   16.5541 C.ar    1  UNL1       -0.0238
     27 C          62.3373   86.6753   17.4350 C.ar    1  UNL1       -0.0022
     28 C          62.2632   85.2015   17.1659 C.ar    1  UNL1        0.0293
     29 C          63.0232   84.6100   16.0158 C.ar    1  UNL1        0.1399
     30 F          62.9492   83.1362   15.7466 F       1  UNL1       -0.2042
     31 C          63.8573   85.4923   15.1349 C.ar    1  UNL1        0.0269
     32 C          63.9313   86.9661   15.4041 C.ar    1  UNL1       -0.0013
@<TRIPOS>BOND
     1    25    26    1
     2    26    27   ar
     3    27    28   ar
     4    28    29   ar
     5    29    30    1
     6    29    31   ar
     7    31    32   ar
     8    32    24    1
     9    24     1    1
    10     1     2   ar
    11     2    14    1
    12    14    15    1
    13    15    16    1
    14    16    17    1
    15    17    18    1
    16    18    19    1
    17    18    20    1
    18    18    21    1
    19     2     3   ar
    20     3     4   ar
    21     4     5   ar
    22     5     6   ar
    23     6     7    2
    24     6     8   ar
    25     8     9    1
    26     8    10   ar
    27    10    11    2
    28    10    12   ar
    29    12    13    1
    30    32    26   ar
    31     5     1   ar
    32    21    14    1
    33    12     4   ar
    34    20    22    1
    35    20    23    1
@<TRIPOS>MOLECULE
*****
 32 35 0 0 0
SMALL
GASTEIGER

@<TRIPOS>ATOM
      1 N          62.5985   88.4738   11.8637 N.ar    1  UNL1       -0.3068
      2 C          62.3388   88.7276   10.4084 C.ar    1  UNL1        0.1142
      3 C          62.9818   90.0326   10.0434 C.ar    1  UNL1        0.0515
      4 C          63.6391   90.5854   11.2732 C.ar    1  UNL1        0.0871
      5 C          63.4022   89.6220   12.3982 C.ar    1  UNL1        0.1342
      6 C          63.9489   89.9148   13.7640 C.ar    1  UNL1        0.2816
      7 O          63.7120   88.9514   14.8891 O.2     1  UNL1       -0.2652
      8 N          64.7324   91.1710   14.0047 N.ar    1  UNL1       -0.2455
      9 C          65.2791   91.4637   15.3706 C.3     1  UNL1        0.1383
     10 C          64.9693   92.1343   12.8798 C.ar    1  UNL1        0.3339
     11 O          65.7530   93.3906   13.1205 O.2     1  UNL1       -0.2462
     12 N          64.4226   91.8416   11.5139 N.ar    1  UNL1       -0.2776
     13 C          64.6596   92.8051   10.3889 C.3     1  UNL1        0.1351
     14 N          61.5707   87.8332    9.4808 N.pl3   1  UNL1       -0.2932
     15 C          60.1047   88.0622    9.2611 C.3     1  UNL1        0.0922
     16 C          59.3367   87.1678    8.3336 C.3     1  UNL1        0.0228
     17 C          60.0347   86.0445    7.6257 C.3     1  UNL1        0.0177
     18 C          61.5007   85.8156    7.8454 C.3     1  UNL1        0.0575
     19 C          62.8645   85.2021    7.7289 C.3     1  UNL1        0.0173
     20 N          61.2064   84.7082    6.8774 N.3     1  UNL1       -0.3219
     21 C          62.2687   86.7100    8.7730 C.3     1  UNL1        0.1062
     22 H          60.2185   84.7314    6.6244 H       1  UNL1        0.1188
     23 H          61.4255   83.8110    7.3104 H       1  UNL1        0.1188
     24 C          62.1359   87.2811   12.6470 C.3     1  UNL1        0.1338
     25 C          61.8782   84.6750   11.1836 C.3     1  UNL1        0.0308
     26 C          62.9597   84.8567   12.2069 C.ar    1  UNL1       -0.0238
     27 C          63.9125   83.7354   12.4986 C.ar    1  UNL1       -0.0022
     28 C          64.9940   83.9172   13.5218 C.ar    1  UNL1        0.0293
     29 C          65.1228   85.2203   14.2536 C.ar    1  UNL1        0.1399
     30 F          66.2044   85.4020   15.2769 F       1  UNL1       -0.2042
     31 C          64.1701   86.3416   13.9620 C.ar    1  UNL1        0.0269
     32 C          63.0886   86.1598   12.9386 C.ar    1  UNL1       -0.0013
@<TRIPOS>BOND
     1    25    26    1
     2    26    27   ar
     3    27    28   ar
     4    28    29   ar
     5    29    30    1
     6    29    31   ar
     7    31    32   ar
     8    32    24    1
     9    24     1    1
    10     1     2   ar
    11     2    14    1
    12    14    15    1
    13    15    16    1
    14    16    17    1
    15    17    18    1
    16    18    19    1
    17    18    20    1
    18    18    21    1
    19     2     3   ar
    20     3     4   ar
    21     4     5   ar
    22     5     6   ar
    23     6     7    2
    24     6     8   ar
    25     8     9    1
    26     8    10   ar
    27    10    11    2
    28    10    12   ar
    29    12    13    1
    30    32    26   ar
    31     5     1   ar
    32    21    14    1
    33    12     4   ar
    34    20    22    1
    35    20    23    1
@<TRIPOS>MOLECULE
*****
 32 35 0 0 0
SMALL
GASTEIGER

@<TRIPOS>ATOM
      1 N          64.1794   89.7277   12.8082 N.ar    1  UNL1       -0.3068
      2 C          64.4306   89.2661   14.2132 C.ar    1  UNL1        0.1142
      3 C          65.1568   90.3604   14.9378 C.ar    1  UNL1        0.0515
      4 C          65.3545   91.4983   13.9807 C.ar    1  UNL1        0.0871
      5 C          64.7505   91.1073   12.6645 C.ar    1  UNL1        0.1342
      6 C          64.7985   92.0580   11.5053 C.ar    1  UNL1        0.2816
      7 O          64.1944   91.6669   10.1891 O.2     1  UNL1       -0.2652
      8 N          65.4505   93.3997   11.6622 N.ar    1  UNL1       -0.2455
      9 C          65.4984   94.3504   10.5029 C.3     1  UNL1        0.1383
     10 C          66.0545   93.7907   12.9783 C.ar    1  UNL1        0.3339
     11 O          66.7065   95.1325   13.1352 O.2     1  UNL1       -0.2462
     12 N          66.0065   92.8400   14.1376 N.ar    1  UNL1       -0.2776
     13 C          66.6106   93.2311   15.4538 C.3     1  UNL1        0.1351
     14 N          64.0264   87.9426   14.7919 N.pl3   1  UNL1       -0.2932
     15 C          64.2210   86.6855   13.9969 C.3     1  UNL1        0.0922
     16 C          63.8168   85.3620   14.5757 C.3     1  UNL1        0.0228
     17 C          63.2180   85.2955   15.9494 C.3     1  UNL1        0.0177
     18 C          63.0235   86.5525   16.7444 C.3     1  UNL1        0.0575
     19 C          62.6426   87.4592   17.8769 C.3     1  UNL1        0.0173
     20 N          62.4870   85.5439   17.7164 N.3     1  UNL1       -0.3219
     21 C          63.4277   87.8760   16.1656 C.3     1  UNL1        0.1062
     22 H          62.5527   84.6110   17.3094 H       1  UNL1        0.1188
     23 H          61.5112   85.7566   17.9233 H       1  UNL1        0.1188
     24 C          63.4801   88.9468   11.7354 C.3     1  UNL1        0.1338
     25 C          61.8990   86.4741   11.1138 C.3     1  UNL1        0.0308
     26 C          61.1974   87.7877   11.2924 C.ar    1  UNL1       -0.0238
     27 C          59.7052   87.8652   11.1602 C.ar    1  UNL1       -0.0022
     28 C          59.0036   89.1788   11.3388 C.ar    1  UNL1        0.0293
     29 C          59.7941   90.4152   11.6496 C.ar    1  UNL1        0.1399
     30 F          59.0925   91.7289   11.8281 F       1  UNL1       -0.2042
     31 C          61.2863   90.3378   11.7817 C.ar    1  UNL1        0.0269
     32 C          61.9879   89.0241   11.6032 C.ar    1  UNL1       -0.0013
@<TRIPOS>BOND
     1    25    26    1
     2    26    27   ar
     3    27    28   ar
     4    28    29   ar
     5    29    30    1
     6    29    31   ar
     7    31    32   ar
     8    32    24    1
     9    24     1    1
    10     1     2   ar
    11     2    14    1
    12    14    15    1
    13    15    16    1
    14    16    17    1
    15    17    18    1
    16    18    19    1
    17    18    20    1
    18    18    21    1
    19     2     3   ar
    20     3     4   ar
    21     4     5   ar
    22     5     6   ar
    23     6     7    2
    24     6     8   ar
    25     8     9    1
    26     8    10   ar
    27    10    11    2
    28    10    12   ar
    29    12    13    1
    30    32    26   ar
    31     5     1   ar
    32    21    14    1
    33    12     4   ar
    34    20    22    1
    35    20    23    1
@<TRIPOS>MOLECULE
*****
 32 35 0 0 0
SMALL
GASTEIGER

@<TRIPOS>ATOM
      1 N          63.4962   87.5701   12.8884 N.ar    1  UNL1       -0.3068
      2 C          63.9225   87.8696   14.2951 C.ar    1  UNL1        0.1142
      3 C          64.1120   86.5645   15.0098 C.ar    1  UNL1        0.0515
      4 C          63.8027   85.4585   14.0449 C.ar    1  UNL1        0.0871
      5 C          63.4221   86.0800   12.7339 C.ar    1  UNL1        0.1342
      6 C          63.0573   85.2087   11.5686 C.ar    1  UNL1        0.2816
      7 O          62.6767   85.8302   10.2576 O.2     1  UNL1       -0.2652
      8 N          63.0731   83.7159   11.7145 N.ar    1  UNL1       -0.2455
      9 C          62.7082   82.8446   10.5492 C.3     1  UNL1        0.1383
     10 C          63.4536   83.0944   13.0255 C.ar    1  UNL1        0.3339
     11 O          63.4693   81.6015   13.1714 O.2     1  UNL1       -0.2462
     12 N          63.8184   83.9657   14.1908 N.ar    1  UNL1       -0.2776
     13 C          64.1990   83.3441   15.5019 C.3     1  UNL1        0.1351
     14 N          64.1241   89.2345   14.8836 N.pl3   1  UNL1       -0.2932
     15 C          63.3556   89.6459   16.1044 C.3     1  UNL1        0.0922
     16 C          63.5572   91.0108   16.6928 C.3     1  UNL1        0.0228
     17 C          64.5272   91.9644   16.0606 C.3     1  UNL1        0.0177
     18 C          65.2956   91.5531   14.8398 C.3     1  UNL1        0.0575
     19 C          66.2491   91.6244   13.6840 C.3     1  UNL1        0.0173
     20 N          65.8283   92.9428   15.0269 N.3     1  UNL1       -0.3219
     21 C          65.0940   90.1881   14.2513 C.3     1  UNL1        0.1062
     22 H          65.3886   93.3685   15.8428 H       1  UNL1        0.1188
     23 H          65.6206   93.5009   14.1987 H       1  UNL1        0.1188
     24 C          63.1966   88.5830   11.8234 C.3     1  UNL1        0.1338
     25 C          62.7651   91.0374   10.1532 C.3     1  UNL1        0.0308
     26 C          61.6182   90.4319   10.9066 C.ar    1  UNL1       -0.0238
     27 C          60.2554   91.0535   10.8250 C.ar    1  UNL1       -0.0022
     28 C          59.1085   90.4480   11.5784 C.ar    1  UNL1        0.0293
     29 C          59.3242   89.2208   12.4136 C.ar    1  UNL1        0.1399
     30 F          58.1772   88.6152   13.1671 F       1  UNL1       -0.2042
     31 C          60.6869   88.5991   12.4953 C.ar    1  UNL1        0.0269
     32 C          61.8339   89.2047   11.7418 C.ar    1  UNL1       -0.0013
@<TRIPOS>BOND
     1    25    26    1
     2    26    27   ar
     3    27    28   ar
     4    28    29   ar
     5    29    30    1
     6    29    31   ar
     7    31    32   ar
     8    32    24    1
     9    24     1    1
    10     1     2   ar
    11     2    14    1
    12    14    15    1
    13    15    16    1
    14    16    17    1
    15    17    18    1
    16    18    19    1
    17    18    20    1
    18    18    21    1
    19     2     3   ar
    20     3     4   ar
    21     4     5   ar
    22     5     6   ar
    23     6     7    2
    24     6     8   ar
    25     8     9    1
    26     8    10   ar
    27    10    11    2
    28    10    12   ar
    29    12    13    1
    30    32    26   ar
    31     5     1   ar
    32    21    14    1
    33    12     4   ar
    34    20    22    1
    35    20    23    1
@<TRIPOS>MOLECULE
*****
 32 35 0 0 0
SMALL
GASTEIGER

@<TRIPOS>ATOM
      1 N          63.4904   89.4327   13.1120 N.ar    1  UNL1       -0.3068
      2 C          64.3677   89.3154   14.3231 C.ar    1  UNL1        0.1142
      3 C          64.5803   87.8570   14.6021 C.ar    1  UNL1        0.0515
      4 C          63.8344   87.0729   13.5634 C.ar    1  UNL1        0.0871
      5 C          63.1608   88.0467   12.6425 C.ar    1  UNL1        0.1342
      6 C          62.3344   87.5456   11.4954 C.ar    1  UNL1        0.2816
      7 O          61.6608   88.5194   10.5745 O.2     1  UNL1       -0.2652
      8 N          62.1815   86.0706   11.2692 N.ar    1  UNL1       -0.2455
      9 C          61.3550   85.5696   10.1220 C.3     1  UNL1        0.1383
     10 C          62.8550   85.0969   12.1900 C.ar    1  UNL1        0.3339
     11 O          62.7021   83.6219   11.9638 O.2     1  UNL1       -0.2462
     12 N          63.6815   85.5980   13.3372 N.ar    1  UNL1       -0.2776
     13 C          64.3551   84.6241   14.2580 C.3     1  UNL1        0.1351
     14 N          64.9331   90.4563   15.1160 N.pl3   1  UNL1       -0.2932
     15 C          64.0788   91.1641   16.1255 C.3     1  UNL1        0.0922
     16 C          64.6443   92.3051   16.9184 C.3     1  UNL1        0.0228
     17 C          66.0640   92.7381   16.7017 C.3     1  UNL1        0.0177
     18 C          66.9183   92.0303   15.6922 C.3     1  UNL1        0.0575
     19 C          68.1130   91.6759   14.8573 C.3     1  UNL1        0.0173
     20 N          67.8986   93.0481   16.1951 N.3     1  UNL1       -0.3219
     21 C          66.3528   90.8894   14.8993 C.3     1  UNL1        0.1062
     22 H          67.4539   93.6246   16.9095 H       1  UNL1        0.1188
     23 H          68.2019   93.6394   15.4213 H       1  UNL1        0.1188
     24 C          63.0245   90.7114   12.4813 C.3     1  UNL1        0.1338
     25 C          63.2111   91.1904    9.5257 C.3     1  UNL1        0.0308
     26 C          64.1188   91.9291   10.4638 C.ar    1  UNL1       -0.0238
     27 C          65.1198   92.9074    9.9244 C.ar    1  UNL1       -0.0022
     28 C          66.0274   93.6462   10.8625 C.ar    1  UNL1        0.0293
     29 C          65.9341   93.4067   12.3404 C.ar    1  UNL1        0.1399
     30 F          66.8418   94.1455   13.2787 F       1  UNL1       -0.2042
     31 C          64.9332   92.4284   12.8800 C.ar    1  UNL1        0.0269
     32 C          64.0255   91.6896   11.9417 C.ar    1  UNL1       -0.0013
@<TRIPOS>BOND
     1    25    26    1
     2    26    27   ar
     3    27    28   ar
     4    28    29   ar
     5    29    30    1
     6    29    31   ar
     7    31    32   ar
     8    32    24    1
     9    24     1    1
    10     1     2   ar
    11     2    14    1
    12    14    15    1
    13    15    16    1
    14    16    17    1
    15    17    18    1
    16    18    19    1
    17    18    20    1
    18    18    21    1
    19     2     3   ar
    20     3     4   ar
    21     4     5   ar
    22     5     6   ar
    23     6     7    2
    24     6     8   ar
    25     8     9    1
    26     8    10   ar
    27    10    11    2
    28    10    12   ar
    29    12    13    1
    30    32    26   ar
    31     5     1   ar
    32    21    14    1
    33    12     4   ar
    34    20    22    1
    35    20    23    1
