@<TRIPOS>MOLECULE
*****
 31 33 0 0 0
SMALL
GASTEIGER

@<TRIPOS>ATOM
      1 N          63.4966   86.4794   12.7806 N.am    1  UNL1       -0.2806
      2 C          63.8135   87.3895   13.9300 C.2     1  UNL1        0.2495
      3 O          63.7581   86.8694   15.3359 O.2     1  UNL1       -0.2698
      4 H          63.5329   86.8208   11.8579 H       1  UNL1        0.1552
      5 C          62.3796   82.1886   13.5497 C.ar    1  UNL1       -0.0230
      6 C          62.6899   83.1005   14.6995 C.ar    1  UNL1       -0.0030
      7 C          63.0623   84.5308   14.4432 C.ar    1  UNL1        0.0140
      8 C          63.1242   85.0492   13.0370 C.ar    1  UNL1        0.0465
      9 C          62.8139   84.1373   11.8872 C.ar    1  UNL1       -0.0096
     10 C          62.4416   82.7070   12.1436 C.ar    1  UNL1       -0.0074
     11 C          60.5924   81.1755   14.0784 C.3     1  UNL1        0.0044
     12 C          62.0073   80.7584   13.8061 C.3     1  UNL1        0.0189
     13 C          63.4222   80.3412   13.5338 C.3     1  UNL1        0.0044
     14 C          61.6350   79.3281   14.0625 C.3     1  UNL1        0.0044
     15 C          62.8759   84.6556   10.4809 C.3     1  UNL1        0.0201
     16 C          61.7248   85.5733   10.7684 C.3     1  UNL1        0.0044
     17 C          64.0270   83.7379   10.1934 C.3     1  UNL1        0.0044
     18 C          62.9379   85.1739    9.0747 C.3     1  UNL1        0.0044
     19 C          64.1858   88.8198   13.6737 C.ar    1  UNL1        0.0537
     20 C          63.5864   89.5540   12.5111 C.ar    1  UNL1        0.0042
     21 C          63.9587   90.9843   12.2547 C.ar    1  UNL1       -0.0028
     22 C          64.9304   91.6803   13.1609 C.ar    1  UNL1       -0.0061
     23 C          65.5299   90.9461   14.3235 C.ar    1  UNL1       -0.0028
     24 C          65.1576   89.5158   14.5799 C.ar    1  UNL1        0.0042
     25 C          65.3028   93.1106   12.9045 C.3     1  UNL1        0.0991
     26 N          66.1289   93.4669   11.7044 N.3     1  UNL1       -0.2690
     27 C          66.1364   94.8762   11.1907 C.3     1  UNL1        0.0724
     28 C          66.9626   95.2326    9.9905 C.3     1  UNL1        0.0174
     29 C          67.7813   94.1798    9.3041 C.3     1  UNL1        0.0029
     30 C          67.7738   92.7705    9.8178 C.3     1  UNL1        0.0174
     31 C          66.9476   92.4141   11.0179 C.3     1  UNL1        0.0724
@<TRIPOS>BOND
     1    11    12    1
     2    12    13    1
     3    12    14    1
     4    12     5    1
     5     5     6   ar
     6     6     7   ar
     7     7     8   ar
     8     8     1    1
     9     1     2   am
    10     2     3    2
    11     2    19    1
    12    19    20   ar
    13    20    21   ar
    14    21    22   ar
    15    22    25    1
    16    25    26    1
    17    26    27    1
    18    27    28    1
    19    28    29    1
    20    29    30    1
    21    30    31    1
    22    22    23   ar
    23    23    24   ar
    24     8     9   ar
    25     9    15    1
    26    15    16    1
    27    15    17    1
    28    15    18    1
    29     9    10   ar
    30    10     5   ar
    31    24    19   ar
    32    31    26    1
    33     1     4    1
@<TRIPOS>MOLECULE
*****
 31 33 0 0 0
SMALL
GASTEIGER

@<TRIPOS>ATOM
      1 N          63.5957   86.3124   12.8150 N.am    1  UNL1       -0.2806
      2 C          62.7061   87.2872   12.1021 C.2     1  UNL1        0.2495
      3 O          61.3852   86.8349   11.5537 O.2     1  UNL1       -0.2698
      4 H          64.4626   86.6092   13.1749 H       1  UNL1        0.1552
      5 C          62.3018   82.0308   13.3088 C.ar    1  UNL1       -0.0230
      6 C          62.4410   82.6186   11.9359 C.ar    1  UNL1       -0.0030
      7 C          62.8723   84.0458   11.7713 C.ar    1  UNL1        0.0140
      8 C          63.1644   84.8852   12.9796 C.ar    1  UNL1        0.0465
      9 C          63.0251   84.2973   14.3525 C.ar    1  UNL1       -0.0096
     10 C          62.5938   82.8701   14.5171 C.ar    1  UNL1       -0.0074
     11 C          60.6325   81.0600   14.1869 C.3     1  UNL1        0.0044
     12 C          61.8705   80.6036   13.4734 C.3     1  UNL1        0.0189
     13 C          63.1084   80.1472   12.7599 C.3     1  UNL1        0.0044
     14 C          61.4392   79.1764   13.6380 C.3     1  UNL1        0.0044
     15 C          63.3171   85.1367   15.5610 C.3     1  UNL1        0.0201
     16 C          64.7567   85.2281   15.1497 C.3     1  UNL1        0.0044
     17 C          61.8775   85.0453   15.9723 C.3     1  UNL1        0.0044
     18 C          63.6091   85.9760   16.7694 C.3     1  UNL1        0.0044
     19 C          63.1374   88.7144   11.9375 C.ar    1  UNL1        0.0537
     20 C          62.8783   89.4320   10.6460 C.ar    1  UNL1        0.0042
     21 C          63.3096   90.8592   10.4814 C.ar    1  UNL1       -0.0028
     22 C          64.0000   91.5688   11.6083 C.ar    1  UNL1       -0.0061
     23 C          64.2591   90.8512   12.8998 C.ar    1  UNL1       -0.0028
     24 C          63.8278   89.4240   13.0644 C.ar    1  UNL1        0.0042
     25 C          64.4313   92.9960   11.4437 C.3     1  UNL1        0.0991
     26 N          65.7081   93.3154   10.7242 N.3     1  UNL1       -0.2690
     27 C          65.9947   94.7237   10.2947 C.3     1  UNL1        0.0724
     28 C          67.2716   95.0432    9.5751 C.3     1  UNL1        0.0174
     29 C          68.2617   93.9544    9.2851 C.3     1  UNL1        0.0029
     30 C          67.9750   92.5460    9.7146 C.3     1  UNL1        0.0174
     31 C          66.6982   92.2266   10.4341 C.3     1  UNL1        0.0724
@<TRIPOS>BOND
     1    11    12    1
     2    12    13    1
     3    12    14    1
     4    12     5    1
     5     5     6   ar
     6     6     7   ar
     7     7     8   ar
     8     8     1    1
     9     1     2   am
    10     2     3    2
    11     2    19    1
    12    19    20   ar
    13    20    21   ar
    14    21    22   ar
    15    22    25    1
    16    25    26    1
    17    26    27    1
    18    27    28    1
    19    28    29    1
    20    29    30    1
    21    30    31    1
    22    22    23   ar
    23    23    24   ar
    24     8     9   ar
    25     9    15    1
    26    15    16    1
    27    15    17    1
    28    15    18    1
    29     9    10   ar
    30    10     5   ar
    31    24    19   ar
    32    31    26    1
    33     1     4    1
@<TRIPOS>MOLECULE
*****
 31 33 0 0 0
SMALL
GASTEIGER

@<TRIPOS>ATOM
      1 N          64.0864   85.1074   12.5596 N.am    1  UNL1       -0.2806
      2 C          63.0529   86.1856   12.4211 C.2     1  UNL1        0.2495
      3 O          61.6840   85.8508   11.9069 O.2     1  UNL1       -0.2698
      4 H          64.9848   85.3271   12.8971 H       1  UNL1        0.1552
      5 C          63.0807   80.8684   11.4330 C.ar    1  UNL1       -0.0230
      6 C          63.5962   81.8186   10.3932 C.ar    1  UNL1       -0.0030
      7 C          63.9315   83.2316   10.7687 C.ar    1  UNL1        0.0140
      8 C          63.7511   83.6944   12.1841 C.ar    1  UNL1        0.0465
      9 C          63.2356   82.7442   13.2239 C.ar    1  UNL1       -0.0096
     10 C          62.9003   81.3312   12.8483 C.ar    1  UNL1       -0.0074
     11 C          62.9509   79.7913    9.6101 C.3     1  UNL1        0.0044
     12 C          62.7454   79.4554   11.0574 C.3     1  UNL1        0.0189
     13 C          62.5400   79.1194   12.5048 C.3     1  UNL1        0.0044
     14 C          62.4102   78.0424   10.6819 C.3     1  UNL1        0.0044
     15 C          63.0552   83.2069   14.6393 C.3     1  UNL1        0.0201
     16 C          61.5782   83.3324   14.4102 C.3     1  UNL1        0.0044
     17 C          64.5323   83.0815   14.8685 C.3     1  UNL1        0.0044
     18 C          62.8749   83.6697   16.0547 C.3     1  UNL1        0.0044
     19 C          63.3881   87.5986   12.7966 C.ar    1  UNL1        0.0537
     20 C          62.9918   88.7288   11.8936 C.ar    1  UNL1        0.0042
     21 C          63.3270   90.1418   12.2691 C.ar    1  UNL1       -0.0028
     22 C          64.0586   90.4246   13.5477 C.ar    1  UNL1       -0.0061
     23 C          64.4549   89.2944   14.4508 C.ar    1  UNL1       -0.0028
     24 C          64.1197   87.8814   14.0753 C.ar    1  UNL1        0.0042
     25 C          64.3938   91.8376   13.9233 C.3     1  UNL1        0.0991
     26 N          65.7757   92.1806   14.3950 N.3     1  UNL1       -0.2690
     27 C          66.9448   92.0246   13.4682 C.3     1  UNL1        0.0724
     28 C          68.3268   92.3675   13.9399 C.3     1  UNL1        0.0174
     29 C          68.5397   92.8664   15.3383 C.3     1  UNL1        0.0029
     30 C          67.3706   93.0224   16.2651 C.3     1  UNL1        0.0174
     31 C          65.9887   92.6795   15.7934 C.3     1  UNL1        0.0724
@<TRIPOS>BOND
     1    11    12    1
     2    12    13    1
     3    12    14    1
     4    12     5    1
     5     5     6   ar
     6     6     7   ar
     7     7     8   ar
     8     8     1    1
     9     1     2   am
    10     2     3    2
    11     2    19    1
    12    19    20   ar
    13    20    21   ar
    14    21    22   ar
    15    22    25    1
    16    25    26    1
    17    26    27    1
    18    27    28    1
    19    28    29    1
    20    29    30    1
    21    30    31    1
    22    22    23   ar
    23    23    24   ar
    24     8     9   ar
    25     9    15    1
    26    15    16    1
    27    15    17    1
    28    15    18    1
    29     9    10   ar
    30    10     5   ar
    31    24    19   ar
    32    31    26    1
    33     1     4    1
@<TRIPOS>MOLECULE
*****
 31 33 0 0 0
SMALL
GASTEIGER

@<TRIPOS>ATOM
      1 N          62.7242   84.9408   12.9504 N.am    1  UNL1       -0.2806
      2 C          63.8589   85.4596   13.7829 C.2     1  UNL1        0.2495
      3 O          64.9746   84.5413   14.1858 O.2     1  UNL1       -0.2698
      4 H          61.9920   85.5434   12.6860 H       1  UNL1        0.1552
      5 C          62.6667   80.6297   11.6612 C.ar    1  UNL1       -0.0230
      6 C          62.4779   80.9829   13.1068 C.ar    1  UNL1       -0.0030
      7 C          62.4971   82.4199   13.5365 C.ar    1  UNL1        0.0140
      8 C          62.7050   83.5038   12.5207 C.ar    1  UNL1        0.0465
      9 C          62.8938   83.1506   11.0751 C.ar    1  UNL1       -0.0096
     10 C          62.8746   81.7136   10.6454 C.ar    1  UNL1       -0.0074
     11 C          62.7891   79.6188    9.8003 C.3     1  UNL1        0.0044
     12 C          62.6475   79.1927   11.2315 C.3     1  UNL1        0.0189
     13 C          62.5059   78.7667   12.6628 C.3     1  UNL1        0.0044
     14 C          62.6283   77.7557   10.8018 C.3     1  UNL1        0.0044
     15 C          63.1018   84.2345   10.0592 C.3     1  UNL1        0.0201
     16 C          61.8824   84.9449   10.5675 C.3     1  UNL1        0.0044
     17 C          64.3211   83.5241    9.5509 C.3     1  UNL1        0.0044
     18 C          63.3097   85.3183    9.0433 C.3     1  UNL1        0.0044
     19 C          63.8781   86.8966   14.2126 C.ar    1  UNL1        0.0537
     20 C          63.9100   87.9869   13.1830 C.ar    1  UNL1        0.0042
     21 C          63.9292   89.4239   13.6127 C.ar    1  UNL1       -0.0028
     22 C          63.9164   89.7706   15.0720 C.ar    1  UNL1       -0.0061
     23 C          63.8845   88.6802   16.1017 C.ar    1  UNL1       -0.0028
     24 C          63.8653   87.2432   15.6720 C.ar    1  UNL1        0.0042
     25 C          63.9356   91.2076   15.5017 C.3     1  UNL1        0.0991
     26 N          65.1536   92.0477   15.2559 N.3     1  UNL1       -0.2690
     27 C          66.0897   92.3601   16.3855 C.3     1  UNL1        0.0724
     28 C          67.3078   93.2003   16.1397 C.3     1  UNL1        0.0174
     29 C          67.5898   93.7281   14.7642 C.3     1  UNL1        0.0029
     30 C          66.6537   93.4156   13.6346 C.3     1  UNL1        0.0174
     31 C          65.4356   92.5755   13.8804 C.3     1  UNL1        0.0724
@<TRIPOS>BOND
     1    11    12    1
     2    12    13    1
     3    12    14    1
     4    12     5    1
     5     5     6   ar
     6     6     7   ar
     7     7     8   ar
     8     8     1    1
     9     1     2   am
    10     2     3    2
    11     2    19    1
    12    19    20   ar
    13    20    21   ar
    14    21    22   ar
    15    22    25    1
    16    25    26    1
    17    26    27    1
    18    27    28    1
    19    28    29    1
    20    29    30    1
    21    30    31    1
    22    22    23   ar
    23    23    24   ar
    24     8     9   ar
    25     9    15    1
    26    15    16    1
    27    15    17    1
    28    15    18    1
    29     9    10   ar
    30    10     5   ar
    31    24    19   ar
    32    31    26    1
    33     1     4    1
