@<TRIPOS>MOLECULE
*****
 47 52 0 0 0
SMALL
GASTEIGER

@<TRIPOS>ATOM
      1 C          64.4912   95.8018   -2.7614 C.ar    1  UNL1        0.1721
      2 C          65.0096   95.4428   -1.4004 C.ar    1  UNL1        0.0360
      3 C          64.1021   94.7896   -0.4005 C.ar    1  UNL1       -0.0119
      4 C          62.6763   94.4955   -0.7615 C.ar    1  UNL1        0.0000
      5 C          62.1579   94.8544   -2.1225 C.ar    1  UNL1        0.0374
      6 C          63.0654   95.5076   -3.1225 C.ar    1  UNL1        0.1718
      7 C          61.7688   93.8423    0.2384 C.3     1  UNL1        0.1259
      8 N          62.2872   93.4833    1.5994 N.am    1  UNL1       -0.2362
      9 C          63.7131   93.7775    1.9605 C.2     1  UNL1        0.2353
     10 O          64.2315   93.4185    3.3215 O.2     1  UNL1       -0.2741
     11 C          64.6206   94.4307    0.9606 C.3     1  UNL1        0.1118
     12 C          60.3430   93.5481   -0.1226 C.ar    1  UNL1        0.0003
     13 C          59.3246   94.6495   -0.1145 C.ar    1  UNL1       -0.0015
     14 C          57.8988   94.3553   -0.4755 C.ar    1  UNL1        0.0111
     15 C          57.4912   92.9598   -0.8448 C.ar    1  UNL1        0.0577
     16 CL         56.0653   92.6656   -1.2058 Cl      1  UNL1       -0.0822
     17 C          58.5095   91.8584   -0.8530 C.ar    1  UNL1        0.0111
     18 C          59.9354   92.1526   -0.4919 C.ar    1  UNL1       -0.0015
     19 C          61.3797   92.8301    2.5994 C.ar    1  UNL1        0.1574
     20 C          59.9706   93.3172    2.7637 C.ar    1  UNL1        0.1349
     21 N          59.0631   92.6640    3.7637 N.ar    1  UNL1       -0.2246
     22 C          59.5648   91.5238    4.5992 C.ar    1  UNL1        0.1512
     23 C          60.9740   91.0367    4.4349 C.ar    1  UNL1        0.1345
     24 N          61.8815   91.6899    3.4350 N.ar    1  UNL1       -0.2242
     25 N          58.6574   90.8706    5.5992 N.pl3   1  UNL1       -0.2903
     26 C          57.4078   90.1801    5.1392 C.3     1  UNL1        0.1136
     27 C          58.9996   90.9080    7.0592 C.3     1  UNL1        0.0922
     28 C          59.7142   89.7509    7.6919 C.3     1  UNL1        0.0199
     29 C          60.7153   89.9931    8.7824 C.3     1  UNL1        0.0031
     30 C          61.4299   88.8360    9.4151 C.3     1  UNL1        0.0160
     31 C          61.1434   87.4365    8.9572 C.3     1  UNL1        0.0580
     32 C          60.1423   87.1943    7.8668 C.3     1  UNL1        0.0160
     33 C          59.4277   88.3515    7.2341 C.3     1  UNL1        0.0031
     34 N          61.8580   86.2793    9.5899 N.3     1  UNL1       -0.2649
     35 C          62.7077   85.3725    8.7498 C.3     1  UNL1        0.0942
     36 C          63.4223   84.2154    9.3824 C.3     1  UNL1        0.1108
     37 N          63.2872   83.9650   10.8553 N.am    1  UNL1       -0.2752
     38 C          64.0019   82.8078   11.4879 C.3     1  UNL1        0.1149
     39 C          62.4376   84.8718   11.6953 C.2     1  UNL1        0.2421
     40 O          62.3025   84.6214   13.1682 O.2     1  UNL1       -0.2734
     41 C          61.7230   86.0290   11.0627 C.3     1  UNL1        0.1586
     42 C          65.7197   95.7581   -5.0503 C.3     1  UNL1        0.2526
     43 O          65.3986   96.4550   -3.7614 O.3     1  UNL1       -0.4684
     44 O          62.5469   95.8666   -4.4836 O.3     1  UNL1       -0.4761
     45 C          61.9126   94.8157   -5.3457 C.3     1  UNL1        0.1663
     46 C          60.4209   94.6579   -5.3607 C.3     1  UNL1        0.0472
     47 C          62.7698   93.9227   -6.1928 C.3     1  UNL1        0.0472
@<TRIPOS>BOND
     1    42    43    1
     2    43     1    1
     3     1     2   ar
     4     2     3   ar
     5     3     4   ar
     6     4     5   ar
     7     5     6   ar
     8     6    44    1
     9    44    45    1
    10    45    46    1
    11    45    47    1
    12     4     7    1
    13     7    12    1
    14    12    13   ar
    15    13    14   ar
    16    14    15   ar
    17    15    16    1
    18    15    17   ar
    19    17    18   ar
    20     7     8    1
    21     8    19    1
    22    19    20   ar
    23    20    21   ar
    24    21    22   ar
    25    22    25    1
    26    25    26    1
    27    25    27    1
    28    28    27    1
    29    28    29    1
    30    29    30    1
    31    30    31    1
    32    31    34    1
    33    34    35    1
    34    35    36    1
    35    36    37    1
    36    37    38    1
    37    37    39   am
    38    39    40    2
    39    39    41    1
    40    31    32    1
    41    32    33    1
    42    22    23   ar
    43    23    24   ar
    44     8     9   am
    45     9    10    2
    46     9    11    1
    47     6     1   ar
    48    18    12   ar
    49    24    19   ar
    50    11     3    1
    51    33    28    1
    52    41    34    1
@<TRIPOS>MOLECULE
*****
 47 52 0 0 0
SMALL
GASTEIGER

@<TRIPOS>ATOM
      1 C          60.3688   91.4630    5.0518 C.ar    1  UNL1        0.1721
      2 C          61.7251   91.3601    4.4195 C.ar    1  UNL1        0.0360
      3 C          62.0068   92.0709    3.1290 C.ar    1  UNL1       -0.0119
      4 C          60.9323   92.8847    2.4709 C.ar    1  UNL1        0.0000
      5 C          59.5760   92.9876    3.1032 C.ar    1  UNL1        0.0374
      6 C          59.2943   92.2767    4.3937 C.ar    1  UNL1        0.1718
      7 C          61.2141   93.5955    1.1804 C.3     1  UNL1        0.1259
      8 N          62.5704   93.4926    0.5481 N.am    1  UNL1       -0.2362
      9 C          63.6450   92.6788    1.2062 C.2     1  UNL1        0.2353
     10 O          65.0012   92.5759    0.5739 O.2     1  UNL1       -0.2741
     11 C          63.3632   91.9680    2.4967 C.3     1  UNL1        0.1118
     12 C          60.1396   94.4092    0.5222 C.ar    1  UNL1        0.0003
     13 C          60.0141   95.8726    0.8270 C.ar    1  UNL1       -0.0015
     14 C          58.9396   96.6863    0.1689 C.ar    1  UNL1        0.0111
     15 C          57.9905   96.0367   -0.7941 C.ar    1  UNL1        0.0577
     16 CL         56.9159   96.8506   -1.4523 Cl      1  UNL1       -0.0822
     17 C          58.1159   94.5734   -1.0989 C.ar    1  UNL1        0.0111
     18 C          59.1905   93.7596   -0.4407 C.ar    1  UNL1       -0.0015
     19 C          62.8521   94.2034   -0.7424 C.ar    1  UNL1        0.1574
     20 C          63.1952   95.6636   -0.7350 C.ar    1  UNL1        0.1349
     21 N          63.4770   96.3744   -2.0255 N.ar    1  UNL1       -0.2246
     22 C          63.4156   95.6250   -3.3234 C.ar    1  UNL1        0.1512
     23 C          63.0725   94.1648   -3.3309 C.ar    1  UNL1        0.1345
     24 N          62.7907   93.4540   -2.0404 N.ar    1  UNL1       -0.2242
     25 N          63.6974   96.3359   -4.6139 N.pl3   1  UNL1       -0.2903
     26 C          65.1113   96.6504   -5.0037 C.3     1  UNL1        0.1136
     27 C          62.5652   96.7322   -5.5145 C.3     1  UNL1        0.0922
     28 C          61.3728   95.8338   -5.6601 C.3     1  UNL1        0.0199
     29 C          61.1549   95.0777   -6.9372 C.3     1  UNL1        0.0031
     30 C          59.9625   94.1793   -7.0827 C.3     1  UNL1        0.0160
     31 C          58.9881   94.0370   -5.9511 C.3     1  UNL1        0.0580
     32 C          59.2061   94.7930   -4.6741 C.3     1  UNL1        0.0160
     33 C          60.3985   95.6914   -4.5286 C.3     1  UNL1        0.0031
     34 N          57.7958   93.1385   -6.0966 N.3     1  UNL1       -0.2649
     35 C          57.0870   93.0406   -7.4150 C.3     1  UNL1        0.0942
     36 C          55.8946   92.1422   -7.5605 C.3     1  UNL1        0.1108
     37 N          55.4111   91.3417   -6.3877 N.am    1  UNL1       -0.2752
     38 C          54.2188   90.4433   -6.5332 C.3     1  UNL1        0.1149
     39 C          56.1199   91.4397   -5.0694 C.2     1  UNL1        0.2421
     40 O          55.6364   90.6393   -3.8965 O.2     1  UNL1       -0.2734
     41 C          57.3122   92.3381   -4.9239 C.3     1  UNL1        0.1586
     42 C          59.9784   89.2564    6.3664 C.3     1  UNL1        0.2526
     43 O          60.0870   90.7522    6.3423 O.3     1  UNL1       -0.4684
     44 O          57.9379   92.3797    5.0260 O.3     1  UNL1       -0.4761
     45 C          57.0669   91.1634    5.1348 C.3     1  UNL1        0.1663
     46 C          57.5786   89.9338    5.8251 C.3     1  UNL1        0.0472
     47 C          55.6842   91.1766    4.5534 C.3     1  UNL1        0.0472
@<TRIPOS>BOND
     1    42    43    1
     2    43     1    1
     3     1     2   ar
     4     2     3   ar
     5     3     4   ar
     6     4     5   ar
     7     5     6   ar
     8     6    44    1
     9    44    45    1
    10    45    46    1
    11    45    47    1
    12     4     7    1
    13     7    12    1
    14    12    13   ar
    15    13    14   ar
    16    14    15   ar
    17    15    16    1
    18    15    17   ar
    19    17    18   ar
    20     7     8    1
    21     8    19    1
    22    19    20   ar
    23    20    21   ar
    24    21    22   ar
    25    22    25    1
    26    25    26    1
    27    25    27    1
    28    28    27    1
    29    28    29    1
    30    29    30    1
    31    30    31    1
    32    31    34    1
    33    34    35    1
    34    35    36    1
    35    36    37    1
    36    37    38    1
    37    37    39   am
    38    39    40    2
    39    39    41    1
    40    31    32    1
    41    32    33    1
    42    22    23   ar
    43    23    24   ar
    44     8     9   am
    45     9    10    2
    46     9    11    1
    47     6     1   ar
    48    18    12   ar
    49    24    19   ar
    50    11     3    1
    51    33    28    1
    52    41    34    1
@<TRIPOS>MOLECULE
*****
 47 52 0 0 0
SMALL
GASTEIGER

@<TRIPOS>ATOM
      1 C          63.8542   83.2003   12.1317 C.ar    1  UNL1        0.1721
      2 C          63.7091   83.1449   10.6398 C.ar    1  UNL1        0.0360
      3 C          62.9461   84.2173    9.9201 C.ar    1  UNL1       -0.0119
      4 C          62.3283   85.3450   10.6923 C.ar    1  UNL1        0.0000
      5 C          62.4734   85.4005   12.1842 C.ar    1  UNL1        0.0374
      6 C          63.2363   84.3281   12.9039 C.ar    1  UNL1        0.1718
      7 C          61.5653   86.4174    9.9726 C.3     1  UNL1        0.1259
      8 N          61.4202   86.3620    8.4807 N.am    1  UNL1       -0.2362
      9 C          62.0381   85.2341    7.7084 C.2     1  UNL1        0.2353
     10 O          61.8930   85.1787    6.2165 O.2     1  UNL1       -0.2741
     11 C          62.8011   84.1618    8.4281 C.3     1  UNL1        0.1118
     12 C          60.9475   87.5452   10.7448 C.ar    1  UNL1        0.0003
     13 C          61.7873   88.7146   11.1657 C.ar    1  UNL1       -0.0015
     14 C          61.1695   89.8424   11.9379 C.ar    1  UNL1        0.0111
     15 C          59.7118   89.8008   12.2892 C.ar    1  UNL1        0.0577
     16 CL         59.0939   90.9287   13.0615 Cl      1  UNL1       -0.0822
     17 C          58.8720   88.6314   11.8683 C.ar    1  UNL1        0.0111
     18 C          59.4898   87.5036   11.0961 C.ar    1  UNL1       -0.0015
     19 C          60.6573   87.4343    7.7610 C.ar    1  UNL1        0.1574
     20 C          59.3767   87.0989    7.0557 C.ar    1  UNL1        0.1349
     21 N          58.6137   88.1713    6.3360 N.ar    1  UNL1       -0.2246
     22 C          59.1314   89.5790    6.3215 C.ar    1  UNL1        0.1512
     23 C          60.4121   89.9145    7.0268 C.ar    1  UNL1        0.1345
     24 N          61.1751   88.8421    7.7466 N.ar    1  UNL1       -0.2242
     25 N          58.3685   90.6514    5.6018 N.pl3   1  UNL1       -0.2903
     26 C          56.9859   90.3738    5.0908 C.3     1  UNL1        0.1136
     27 C          58.9882   92.0014    5.3932 C.3     1  UNL1        0.0922
     28 C          59.7389   92.2946    4.1281 C.3     1  UNL1        0.0199
     29 C          61.2158   92.0419    4.0566 C.3     1  UNL1        0.0031
     30 C          61.9665   92.3351    2.7915 C.3     1  UNL1        0.0160
     31 C          61.2403   92.8810    1.5979 C.3     1  UNL1        0.0580
     32 C          59.7635   93.1337    1.6694 C.3     1  UNL1        0.0160
     33 C          59.0128   92.8405    2.9345 C.3     1  UNL1        0.0031
     34 N          61.9910   93.1742    0.3328 N.3     1  UNL1       -0.2649
     35 C          63.4718   93.4091    0.3767 C.3     1  UNL1        0.0942
     36 C          64.2225   93.7023   -0.8885 C.3     1  UNL1        0.1108
     37 N          63.4923   93.7606   -2.1975 N.am    1  UNL1       -0.2752
     38 C          64.2430   94.0538   -3.4626 C.3     1  UNL1        0.1149
     39 C          62.0115   93.5257   -2.2413 C.2     1  UNL1        0.2421
     40 O          61.2813   93.5840   -3.5504 O.2     1  UNL1       -0.2734
     41 C          61.2608   93.2325   -0.9762 C.3     1  UNL1        0.1586
     42 C          63.8802   81.0355   13.5680 C.3     1  UNL1        0.2526
     43 O          64.6171   82.1280   12.8514 O.3     1  UNL1       -0.4684
     44 O          63.3814   84.3836   14.3959 O.3     1  UNL1       -0.4761
     45 C          64.3302   85.3626   15.0213 C.3     1  UNL1        0.1663
     46 C          63.8312   86.3456   16.0385 C.3     1  UNL1        0.0472
     47 C          65.7782   85.3586   14.6295 C.3     1  UNL1        0.0472
@<TRIPOS>BOND
     1    42    43    1
     2    43     1    1
     3     1     2   ar
     4     2     3   ar
     5     3     4   ar
     6     4     5   ar
     7     5     6   ar
     8     6    44    1
     9    44    45    1
    10    45    46    1
    11    45    47    1
    12     4     7    1
    13     7    12    1
    14    12    13   ar
    15    13    14   ar
    16    14    15   ar
    17    15    16    1
    18    15    17   ar
    19    17    18   ar
    20     7     8    1
    21     8    19    1
    22    19    20   ar
    23    20    21   ar
    24    21    22   ar
    25    22    25    1
    26    25    26    1
    27    25    27    1
    28    28    27    1
    29    28    29    1
    30    29    30    1
    31    30    31    1
    32    31    34    1
    33    34    35    1
    34    35    36    1
    35    36    37    1
    36    37    38    1
    37    37    39   am
    38    39    40    2
    39    39    41    1
    40    31    32    1
    41    32    33    1
    42    22    23   ar
    43    23    24   ar
    44     8     9   am
    45     9    10    2
    46     9    11    1
    47     6     1   ar
    48    18    12   ar
    49    24    19   ar
    50    11     3    1
    51    33    28    1
    52    41    34    1
