@<TRIPOS>MOLECULE
*****
 28 31 0 0 0
SMALL
GASTEIGER

@<TRIPOS>ATOM
      1 O          66.5517   92.5256   14.4850 O.2     1  UNL1       -0.2719
      2 C          65.8643   92.6331   13.1561 C.2     1  UNL1        0.2569
      3 N          64.8479   91.6066   12.7522 N.am    1  UNL1       -0.2772
      4 C          64.5188   90.4726   13.6771 C.3     1  UNL1        0.0952
      5 C          63.5023   89.4460   13.2732 C.3     1  UNL1        0.0410
      6 C          62.8150   89.5536   11.9443 C.3     1  UNL1        0.0722
      7 C          63.1442   90.6877   11.0193 C.3     1  UNL1        0.0410
      8 C          64.1606   91.7142   11.4232 C.3     1  UNL1        0.0952
      9 C          66.1935   93.7671   12.2311 C.3     1  UNL1        0.2096
     10 O          65.7656   95.1633   12.5742 O.3     1  UNL1       -0.3719
     11 H          66.0557   95.7711   11.8762 H       1  UNL1        0.2114
     12 C          66.9504   93.5051   10.9629 C.ar    1  UNL1        0.0131
     13 C          67.7043   92.2196   10.7913 C.ar    1  UNL1       -0.0015
     14 C          68.4612   91.9576    9.5231 C.ar    1  UNL1       -0.0002
     15 C          68.4643   92.9810    8.4264 C.ar    1  UNL1       -0.0000
     16 C          67.7105   94.2664    8.5979 C.ar    1  UNL1       -0.0002
     17 C          66.9535   94.5284    9.8662 C.ar    1  UNL1       -0.0015
     18 N          61.7986   88.5271   11.5404 N.pl3   1  UNL1       -0.3369
     19 H          60.8381   88.7340   11.6032 H       1  UNL1        0.1465
     20 C          62.2456   87.1851   11.0408 C.2     1  UNL1        0.0262
     21 C          62.3218   86.9211    9.5663 C.2     1  UNL1        0.0118
     22 C          62.7688   85.5792    9.0667 C.2     1  UNL1        0.0216
     23 C          63.1396   84.5014   10.0418 C.2     1  UNL1        0.1008
     24 N          63.6122   83.0912    9.8472 N.2     1  UNL1       -0.1482
     25 N          63.8282   82.4837   11.2015 N.2     1  UNL1       -0.1467
     26 C          63.4890   83.5185   12.2332 C.2     1  UNL1        0.1198
     27 C          63.0635   84.7655   11.5164 C.2     1  UNL1        0.0238
     28 C          62.6165   86.1074   12.0159 C.3     1  UNL1        0.0703
@<TRIPOS>BOND
     1     1     2    2
     2     2     9    1
     3     9    10    1
     4     9    12    1
     5    12    13   ar
     6    13    14   ar
     7    14    15   ar
     8    15    16   ar
     9    16    17   ar
    10     2     3   am
    11     3     4    1
    12     4     5    1
    13     5     6    1
    14     6    18    1
    15    18    20    1
    16    20    21    2
    17    21    22    1
    18    22    23    2
    19    23    24    1
    20    24    25    2
    21    25    26    1
    22    26    27    2
    23    27    28    1
    24     6     7    1
    25     7     8    1
    26    17    12   ar
    27     8     3    1
    28    28    20    1
    29    27    23    1
    30    10    11    1
    31    18    19    1
@<TRIPOS>MOLECULE
*****
 28 31 0 0 0
SMALL
GASTEIGER

@<TRIPOS>ATOM
      1 O          62.9224   83.9783   16.5277 O.2     1  UNL1       -0.2719
      2 C          63.7501   84.7705   15.5595 C.2     1  UNL1        0.2569
      3 N          63.7443   86.2693   15.6189 N.am    1  UNL1       -0.2772
      4 C          62.9110   86.9759   16.6466 C.3     1  UNL1        0.0952
      5 C          62.9053   88.4748   16.7060 C.3     1  UNL1        0.0410
      6 C          63.7330   89.2669   15.7378 C.3     1  UNL1        0.0722
      7 C          64.5663   88.5602   14.7101 C.3     1  UNL1        0.0410
      8 C          64.5720   87.0614   14.6506 C.3     1  UNL1        0.0952
      9 C          64.5835   84.0638   14.5318 C.3     1  UNL1        0.2096
     10 O          66.0624   84.3063   14.4696 O.3     1  UNL1       -0.3719
     11 H          66.4473   83.7757   13.7546 H       1  UNL1        0.2114
     12 C          63.9379   83.1147   13.5662 C.ar    1  UNL1        0.0131
     13 C          63.1216   81.9646   14.0772 C.ar    1  UNL1       -0.0015
     14 C          62.4761   81.0155   13.1116 C.ar    1  UNL1       -0.0002
     15 C          62.6467   81.2164   11.6350 C.ar    1  UNL1       -0.0000
     16 C          63.4629   82.3664   11.1239 C.ar    1  UNL1       -0.0002
     17 C          64.1085   83.3156   12.0896 C.ar    1  UNL1       -0.0015
     18 N          63.7272   90.7657   15.7972 N.pl3   1  UNL1       -0.3369
     19 H          63.1608   91.2301   16.4550 H       1  UNL1        0.1465
     20 C          64.5846   91.5570   14.8543 C.2     1  UNL1        0.0262
     21 C          65.7149   92.3874   15.3858 C.2     1  UNL1        0.0118
     22 C          66.5723   93.1787   14.4429 C.2     1  UNL1        0.0216
     23 C          66.2992   93.1393   12.9685 C.2     1  UNL1        0.1008
     24 N          66.9693   93.8088   11.8055 N.2     1  UNL1       -0.1482
     25 N          66.2531   93.3920   10.5552 N.2     1  UNL1       -0.1467
     26 C          65.1403   92.4650   10.9455 C.2     1  UNL1        0.1198
     27 C          65.1688   92.3088   12.4370 C.2     1  UNL1        0.0238
     28 C          64.3115   91.5176   13.3799 C.3     1  UNL1        0.0703
@<TRIPOS>BOND
     1     1     2    2
     2     2     9    1
     3     9    10    1
     4     9    12    1
     5    12    13   ar
     6    13    14   ar
     7    14    15   ar
     8    15    16   ar
     9    16    17   ar
    10     2     3   am
    11     3     4    1
    12     4     5    1
    13     5     6    1
    14     6    18    1
    15    18    20    1
    16    20    21    2
    17    21    22    1
    18    22    23    2
    19    23    24    1
    20    24    25    2
    21    25    26    1
    22    26    27    2
    23    27    28    1
    24     6     7    1
    25     7     8    1
    26    17    12   ar
    27     8     3    1
    28    28    20    1
    29    27    23    1
    30    10    11    1
    31    18    19    1
@<TRIPOS>MOLECULE
*****
 28 31 0 0 0
SMALL
GASTEIGER

@<TRIPOS>ATOM
      1 O          61.6035   86.0515   11.9299 O.2     1  UNL1       -0.2719
      2 C          61.4970   87.1626   10.9279 C.2     1  UNL1        0.2569
      3 N          62.1979   88.4655   11.1754 N.am    1  UNL1       -0.2772
      4 C          63.0054   88.6571   12.4248 C.3     1  UNL1        0.0952
      5 C          63.7064   89.9600   12.6724 C.3     1  UNL1        0.0410
      6 C          63.5999   91.0712   11.6704 C.3     1  UNL1        0.0722
      7 C          62.7923   90.8795   10.4209 C.3     1  UNL1        0.0410
      8 C          62.0914   89.5766   10.1734 C.3     1  UNL1        0.0952
      9 C          60.6895   86.9710    9.6784 C.3     1  UNL1        0.2096
     10 O          59.3525   87.6367    9.5400 O.3     1  UNL1       -0.3719
     11 H          58.9664   87.4110    8.6792 H       1  UNL1        0.2114
     12 C          61.2190   86.1136    8.5673 C.ar    1  UNL1        0.0131
     13 C          62.6475   85.6566    8.5882 C.ar    1  UNL1       -0.0015
     14 C          63.1770   84.7992    7.4771 C.ar    1  UNL1       -0.0002
     15 C          62.2779   84.3988    6.3451 C.ar    1  UNL1       -0.0000
     16 C          60.8494   84.8558    6.3242 C.ar    1  UNL1       -0.0002
     17 C          60.3200   85.7132    7.4354 C.ar    1  UNL1       -0.0015
     18 N          64.3008   92.3740   11.9179 N.pl3   1  UNL1       -0.3369
     19 H          63.8789   93.2200   11.6430 H       1  UNL1        0.1465
     20 C          65.6447   92.3878   12.5843 C.2     1  UNL1        0.0262
     21 C          66.8826   92.1178   11.7817 C.2     1  UNL1        0.0118
     22 C          68.2265   92.1316   12.4481 C.2     1  UNL1        0.0216
     23 C          68.3321   92.4154   13.9172 C.2     1  UNL1        0.1008
     24 N          69.5106   92.4954   14.8417 N.2     1  UNL1       -0.1482
     25 N          69.0009   92.8150   16.2158 N.2     1  UNL1       -0.1467
     26 C          67.5074   92.9324   16.1405 C.2     1  UNL1        0.1198
     27 C          67.0941   92.6855   14.7199 C.2     1  UNL1        0.0238
     28 C          65.7503   92.6717   14.0534 C.3     1  UNL1        0.0703
@<TRIPOS>BOND
     1     1     2    2
     2     2     9    1
     3     9    10    1
     4     9    12    1
     5    12    13   ar
     6    13    14   ar
     7    14    15   ar
     8    15    16   ar
     9    16    17   ar
    10     2     3   am
    11     3     4    1
    12     4     5    1
    13     5     6    1
    14     6    18    1
    15    18    20    1
    16    20    21    2
    17    21    22    1
    18    22    23    2
    19    23    24    1
    20    24    25    2
    21    25    26    1
    22    26    27    2
    23    27    28    1
    24     6     7    1
    25     7     8    1
    26    17    12   ar
    27     8     3    1
    28    28    20    1
    29    27    23    1
    30    10    11    1
    31    18    19    1
@<TRIPOS>MOLECULE
*****
 28 31 0 0 0
SMALL
GASTEIGER

@<TRIPOS>ATOM
      1 O          64.2528   92.3819   10.0516 O.2     1  UNL1       -0.2719
      2 C          65.1657   92.3765   11.2418 C.2     1  UNL1        0.2569
      3 N          64.7808   91.6203   12.4787 N.am    1  UNL1       -0.2772
      4 C          63.4832   90.8694   12.5254 C.3     1  UNL1        0.0952
      5 C          63.0984   90.1131   13.7624 C.3     1  UNL1        0.0410
      6 C          64.0112   90.1078   14.9526 C.3     1  UNL1        0.0722
      7 C          65.3089   90.8587   14.9059 C.3     1  UNL1        0.0410
      8 C          65.6938   91.6149   13.6690 C.3     1  UNL1        0.0952
      9 C          66.4634   93.1274   11.1952 C.3     1  UNL1        0.2096
     10 O          67.6432   92.6355   11.9801 O.3     1  UNL1       -0.3719
     11 H          68.3958   93.2313   11.8401 H       1  UNL1        0.2114
     12 C          66.5813   94.3702   10.3636 C.ar    1  UNL1        0.0131
     13 C          65.7774   95.5869   10.7150 C.ar    1  UNL1       -0.0015
     14 C          65.8954   96.8297    9.8833 C.ar    1  UNL1       -0.0002
     15 C          66.8172   96.8558    8.7003 C.ar    1  UNL1       -0.0000
     16 C          67.6211   95.6392    8.3489 C.ar    1  UNL1       -0.0002
     17 C          67.5031   94.3964    9.1806 C.ar    1  UNL1       -0.0015
     18 N          63.6263   89.3515   16.1895 N.pl3   1  UNL1       -0.3369
     19 H          63.4689   89.8345   17.0328 H       1  UNL1        0.1465
     20 C          63.4813   87.8592   16.1415 C.2     1  UNL1        0.0262
     21 C          62.6341   87.1549   17.1592 C.2     1  UNL1        0.0118
     22 C          62.4890   85.6626   17.1112 C.2     1  UNL1        0.0216
     23 C          63.1913   84.8749   16.0452 C.2     1  UNL1        0.1008
     24 N          63.2354   83.4053   15.7481 N.2     1  UNL1       -0.1482
     25 N          64.1099   83.2014   14.5466 N.2     1  UNL1       -0.1467
     26 C          64.6063   84.5450   14.1012 C.2     1  UNL1        0.1198
     27 C          64.0385   85.5793   15.0274 C.2     1  UNL1        0.0238
     28 C          64.1835   87.0715   15.0755 C.3     1  UNL1        0.0703
@<TRIPOS>BOND
     1     1     2    2
     2     2     9    1
     3     9    10    1
     4     9    12    1
     5    12    13   ar
     6    13    14   ar
     7    14    15   ar
     8    15    16   ar
     9    16    17   ar
    10     2     3   am
    11     3     4    1
    12     4     5    1
    13     5     6    1
    14     6    18    1
    15    18    20    1
    16    20    21    2
    17    21    22    1
    18    22    23    2
    19    23    24    1
    20    24    25    2
    21    25    26    1
    22    26    27    2
    23    27    28    1
    24     6     7    1
    25     7     8    1
    26    17    12   ar
    27     8     3    1
    28    28    20    1
    29    27    23    1
    30    10    11    1
    31    18    19    1
@<TRIPOS>MOLECULE
*****
 28 31 0 0 0
SMALL
GASTEIGER

@<TRIPOS>ATOM
      1 O          62.1881   84.6149   10.7642 O.2     1  UNL1       -0.2719
      2 C          62.9790   85.0384   11.9663 C.2     1  UNL1        0.2569
      3 N          63.0998   86.4935   12.3099 N.am    1  UNL1       -0.2772
      4 C          62.4298   87.5250   11.4515 C.3     1  UNL1        0.0952
      5 C          62.5507   88.9802   11.7952 C.3     1  UNL1        0.0410
      6 C          63.3416   89.4037   12.9973 C.3     1  UNL1        0.0722
      7 C          64.0116   88.3721   13.8557 C.3     1  UNL1        0.0410
      8 C          63.8908   86.9170   13.5121 C.3     1  UNL1        0.0952
      9 C          63.6490   84.0069   12.8248 C.3     1  UNL1        0.2096
     10 O          64.9714   84.3084   13.4653 O.3     1  UNL1       -0.3719
     11 H          65.2627   83.5410   13.9823 H       1  UNL1        0.2114
     12 C          62.9967   82.6739   13.0427 C.ar    1  UNL1        0.0131
     13 C          62.0031   82.4975   14.1526 C.ar    1  UNL1       -0.0015
     14 C          61.3509   81.1644   14.3704 C.ar    1  UNL1       -0.0002
     15 C          61.6920   80.0077   13.4784 C.ar    1  UNL1       -0.0000
     16 C          62.6856   80.1841   12.3685 C.ar    1  UNL1       -0.0002
     17 C          63.3379   81.5172   12.1507 C.ar    1  UNL1       -0.0015
     18 N          63.4624   90.8588   13.3409 N.pl3   1  UNL1       -0.3369
     19 H          62.6543   91.4166   13.4121 H       1  UNL1        0.1465
     20 C          64.8147   91.4641   13.5761 C.2     1  UNL1        0.0262
     21 C          65.6014   92.0132   12.4231 C.2     1  UNL1        0.0118
     22 C          66.9536   92.6184   12.6583 C.2     1  UNL1        0.0216
     23 C          67.5190   92.6745   14.0465 C.2     1  UNL1        0.1008
     24 N          68.8151   93.2073   14.5816 N.2     1  UNL1       -0.1482
     25 N          68.8293   92.9875   16.0653 N.2     1  UNL1       -0.1467
     26 C          67.5420   92.3188   16.4472 C.2     1  UNL1        0.1198
     27 C          66.7322   92.1254   15.1995 C.2     1  UNL1        0.0238
     28 C          65.3800   91.5202   14.9643 C.3     1  UNL1        0.0703
@<TRIPOS>BOND
     1     1     2    2
     2     2     9    1
     3     9    10    1
     4     9    12    1
     5    12    13   ar
     6    13    14   ar
     7    14    15   ar
     8    15    16   ar
     9    16    17   ar
    10     2     3   am
    11     3     4    1
    12     4     5    1
    13     5     6    1
    14     6    18    1
    15    18    20    1
    16    20    21    2
    17    21    22    1
    18    22    23    2
    19    23    24    1
    20    24    25    2
    21    25    26    1
    22    26    27    2
    23    27    28    1
    24     6     7    1
    25     7     8    1
    26    17    12   ar
    27     8     3    1
    28    28    20    1
    29    27    23    1
    30    10    11    1
    31    18    19    1
@<TRIPOS>MOLECULE
*****
 28 31 0 0 0
SMALL
GASTEIGER

@<TRIPOS>ATOM
      1 O          60.5505   85.9896    9.7420 O.2     1  UNL1       -0.2719
      2 C          61.7758   86.0636   10.6040 C.2     1  UNL1        0.2569
      3 N          62.1165   87.3395   11.3153 N.am    1  UNL1       -0.2772
      4 C          61.2320   88.5414   11.1644 C.3     1  UNL1        0.0952
      5 C          61.5727   89.8175   11.8757 C.3     1  UNL1        0.0410
      6 C          62.7980   89.8915   12.7377 C.3     1  UNL1        0.0722
      7 C          63.6826   88.6894   12.8885 C.3     1  UNL1        0.0410
      8 C          63.3419   87.4135   12.1773 C.3     1  UNL1        0.0952
      9 C          62.6604   84.8616   10.7549 C.3     1  UNL1        0.2096
     10 O          63.6669   84.5330    9.6923 O.3     1  UNL1       -0.3719
     11 H          64.1523   83.7317    9.9435 H       1  UNL1        0.2114
     12 C          62.5386   83.9882   11.9683 C.ar    1  UNL1        0.0131
     13 C          62.4801   82.4970   11.8164 C.ar    1  UNL1       -0.0015
     14 C          62.3582   81.6238   13.0298 C.ar    1  UNL1       -0.0002
     15 C          62.2948   82.2415   14.3952 C.ar    1  UNL1       -0.0000
     16 C          62.3533   83.7327   14.5472 C.ar    1  UNL1       -0.0002
     17 C          62.4752   84.6060   13.3337 C.ar    1  UNL1       -0.0015
     18 N          63.1387   91.1674   13.4489 N.pl3   1  UNL1       -0.3369
     19 H          62.4218   91.7295   13.8222 H       1  UNL1        0.1465
     20 C          64.5718   91.5870   13.5915 C.2     1  UNL1        0.0262
     21 C          65.3608   91.9851   12.3796 C.2     1  UNL1        0.0118
     22 C          66.7940   92.4046   12.5221 C.2     1  UNL1        0.0216
     23 C          67.4380   92.4260   13.8766 C.2     1  UNL1        0.1008
     24 N          68.8223   92.7911   14.3241 N.2     1  UNL1       -0.1482
     25 N          68.8888   92.6185   15.8127 N.2     1  UNL1       -0.1467
     26 C          67.5456   92.1468   16.2852 C.2     1  UNL1        0.1198
     27 C          66.6489   92.0278   15.0886 C.2     1  UNL1        0.0238
     28 C          65.2158   91.6083   14.9460 C.3     1  UNL1        0.0703
@<TRIPOS>BOND
     1     1     2    2
     2     2     9    1
     3     9    10    1
     4     9    12    1
     5    12    13   ar
     6    13    14   ar
     7    14    15   ar
     8    15    16   ar
     9    16    17   ar
    10     2     3   am
    11     3     4    1
    12     4     5    1
    13     5     6    1
    14     6    18    1
    15    18    20    1
    16    20    21    2
    17    21    22    1
    18    22    23    2
    19    23    24    1
    20    24    25    2
    21    25    26    1
    22    26    27    2
    23    27    28    1
    24     6     7    1
    25     7     8    1
    26    17    12   ar
    27     8     3    1
    28    28    20    1
    29    27    23    1
    30    10    11    1
    31    18    19    1
@<TRIPOS>MOLECULE
*****
 28 31 0 0 0
SMALL
GASTEIGER

@<TRIPOS>ATOM
      1 O          63.6707   91.7936   10.3800 O.2     1  UNL1       -0.2719
      2 C          64.4757   91.8201   11.6454 C.2     1  UNL1        0.2569
      3 N          64.3473   90.7043   12.6395 N.am    1  UNL1       -0.2772
      4 C          63.4138   89.5620   12.3684 C.3     1  UNL1        0.0952
      5 C          63.2854   88.4461   13.3626 C.3     1  UNL1        0.0410
      6 C          64.0905   88.4726   14.6280 C.3     1  UNL1        0.0722
      7 C          65.0240   89.6150   14.8991 C.3     1  UNL1        0.0410
      8 C          65.1524   90.7309   13.9049 C.3     1  UNL1        0.0952
      9 C          65.4093   92.9625   11.9165 C.3     1  UNL1        0.2096
     10 O          65.4373   93.6024   13.2729 O.3     1  UNL1       -0.3719
     11 H          66.0907   94.3193   13.2787 H       1  UNL1        0.2114
     12 C          66.3148   93.4649   10.8314 C.ar    1  UNL1        0.0131
     13 C          67.2930   92.5332   10.1794 C.ar    1  UNL1       -0.0015
     14 C          68.1985   93.0357    9.0943 C.ar    1  UNL1       -0.0002
     15 C          68.1258   94.4699    8.6610 C.ar    1  UNL1       -0.0000
     16 C          67.1476   95.4017    9.3129 C.ar    1  UNL1       -0.0002
     17 C          66.2421   94.8991   10.3981 C.ar    1  UNL1       -0.0015
     18 N          63.9620   87.3568   15.6221 N.pl3   1  UNL1       -0.3369
     19 H          64.0681   87.5395   16.5837 H       1  UNL1        0.1465
     20 C          63.6719   85.9624   15.1512 C.2     1  UNL1        0.0262
     21 C          62.7613   85.0759   15.9478 C.2     1  UNL1        0.0118
     22 C          62.4711   83.6816   15.4769 C.2     1  UNL1        0.0216
     23 C          63.0917   83.1739   14.2092 C.2     1  UNL1        0.1008
     24 N          62.9918   81.8555   13.5007 N.2     1  UNL1       -0.1482
     25 N          63.8406   81.9273   12.2661 N.2     1  UNL1       -0.1467
     26 C          64.4652   83.2900   12.2116 C.2     1  UNL1        0.1198
     27 C          64.0024   84.0604   13.4125 C.2     1  UNL1        0.0238
     28 C          64.2925   85.4547   13.8835 C.3     1  UNL1        0.0703
@<TRIPOS>BOND
     1     1     2    2
     2     2     9    1
     3     9    10    1
     4     9    12    1
     5    12    13   ar
     6    13    14   ar
     7    14    15   ar
     8    15    16   ar
     9    16    17   ar
    10     2     3   am
    11     3     4    1
    12     4     5    1
    13     5     6    1
    14     6    18    1
    15    18    20    1
    16    20    21    2
    17    21    22    1
    18    22    23    2
    19    23    24    1
    20    24    25    2
    21    25    26    1
    22    26    27    2
    23    27    28    1
    24     6     7    1
    25     7     8    1
    26    17    12   ar
    27     8     3    1
    28    28    20    1
    29    27    23    1
    30    10    11    1
    31    18    19    1
@<TRIPOS>MOLECULE
*****
 28 31 0 0 0
SMALL
GASTEIGER

@<TRIPOS>ATOM
      1 O          62.6573   83.6454    9.0679 O.2     1  UNL1       -0.2719
      2 C          63.1356   84.0680   10.4254 C.2     1  UNL1        0.2569
      3 N          62.9184   85.4769   10.8921 N.am    1  UNL1       -0.2772
      4 C          62.2231   86.4632   10.0014 C.3     1  UNL1        0.0952
      5 C          62.0059   87.8722   10.4681 C.3     1  UNL1        0.0410
      6 C          62.4842   88.2947   11.8255 C.3     1  UNL1        0.0722
      7 C          63.1796   87.3083   12.7163 C.3     1  UNL1        0.0410
      8 C          63.3967   85.8994   12.2496 C.3     1  UNL1        0.0952
      9 C          63.8310   83.0816   11.3162 C.3     1  UNL1        0.2096
     10 O          65.3174   82.9036   11.2217 O.3     1  UNL1       -0.3719
     11 H          65.6041   82.2335   11.8617 H       1  UNL1        0.2114
     12 C          63.0400   82.2732   12.3015 C.ar    1  UNL1        0.0131
     13 C          62.4388   82.9366   13.5051 C.ar    1  UNL1       -0.0015
     14 C          61.6479   82.1282   14.4903 C.ar    1  UNL1       -0.0002
     15 C          61.4579   80.6563   14.2721 C.ar    1  UNL1       -0.0000
     16 C          62.0590   79.9929   13.0685 C.ar    1  UNL1       -0.0002
     17 C          62.8501   80.8014   12.0832 C.ar    1  UNL1       -0.0015
     18 N          62.2670   89.7037   12.2922 N.pl3   1  UNL1       -0.3369
     19 H          61.3547   90.0285   12.4693 H       1  UNL1        0.1465
     20 C          63.4401   90.6177   12.4891 C.2     1  UNL1        0.0262
     21 C          64.1267   90.6804   13.8212 C.2     1  UNL1        0.0118
     22 C          65.2997   91.5944   14.0181 C.2     1  UNL1        0.0216
     23 C          65.7860   92.4456   12.8828 C.2     1  UNL1        0.1008
     24 N          66.9093   93.4343   12.7792 N.2     1  UNL1       -0.1482
     25 N          66.9168   93.9826   11.3830 N.2     1  UNL1       -0.1467
     26 C          65.7982   93.3328   10.6237 C.2     1  UNL1        0.1198
     27 C          65.0993   92.3829   11.5507 C.2     1  UNL1        0.0238
     28 C          63.9263   91.4689   11.3538 C.3     1  UNL1        0.0703
@<TRIPOS>BOND
     1     1     2    2
     2     2     9    1
     3     9    10    1
     4     9    12    1
     5    12    13   ar
     6    13    14   ar
     7    14    15   ar
     8    15    16   ar
     9    16    17   ar
    10     2     3   am
    11     3     4    1
    12     4     5    1
    13     5     6    1
    14     6    18    1
    15    18    20    1
    16    20    21    2
    17    21    22    1
    18    22    23    2
    19    23    24    1
    20    24    25    2
    21    25    26    1
    22    26    27    2
    23    27    28    1
    24     6     7    1
    25     7     8    1
    26    17    12   ar
    27     8     3    1
    28    28    20    1
    29    27    23    1
    30    10    11    1
    31    18    19    1
@<TRIPOS>MOLECULE
*****
 28 31 0 0 0
SMALL
GASTEIGER

@<TRIPOS>ATOM
      1 O          58.9967   86.7147    8.8047 O.2     1  UNL1       -0.2719
      2 C          60.4690   86.8510    9.0571 C.2     1  UNL1        0.2569
      3 N          60.9971   88.0515    9.7850 N.am    1  UNL1       -0.2772
      4 C          60.0530   89.1156   10.2604 C.3     1  UNL1        0.0952
      5 C          60.5812   90.3162   10.9884 C.3     1  UNL1        0.0410
      6 C          62.0535   90.4525   11.2409 C.3     1  UNL1        0.0722
      7 C          62.9976   89.3883   10.7654 C.3     1  UNL1        0.0410
      8 C          62.4695   88.1878   10.0375 C.3     1  UNL1        0.0952
      9 C          61.4132   85.7868    8.5817 C.3     1  UNL1        0.2096
     10 O          61.5188   85.4774    7.1177 O.3     1  UNL1       -0.3719
     11 H          62.1691   84.7705    6.9828 H       1  UNL1        0.2114
     12 C          62.2517   85.0320    9.5702 C.ar    1  UNL1        0.0131
     13 C          63.3934   84.1843    9.0926 C.ar    1  UNL1       -0.0015
     14 C          64.2318   83.4295   10.0812 C.ar    1  UNL1       -0.0002
     15 C          63.9287   83.5224   11.5473 C.ar    1  UNL1       -0.0000
     16 C          62.7871   84.3701   12.0249 C.ar    1  UNL1       -0.0002
     17 C          61.9486   85.1249   11.0363 C.ar    1  UNL1       -0.0015
     18 N          62.5816   91.6530   11.9688 N.pl3   1  UNL1       -0.3369
     19 H          62.1138   92.5164   11.8986 H       1  UNL1        0.1465
     20 C          63.8226   91.5380   12.8036 C.2     1  UNL1        0.0262
     21 C          63.8160   90.6961   14.0449 C.2     1  UNL1        0.0118
     22 C          65.0570   90.5810   14.8797 C.2     1  UNL1        0.0216
     23 C          66.3045   91.3080   14.4731 C.2     1  UNL1        0.1008
     24 N          67.6688   91.3837   15.0917 N.2     1  UNL1       -0.1482
     25 N          68.5186   92.2725   14.2327 N.2     1  UNL1       -0.1467
     26 C          67.6794   92.7460   13.0831 C.2     1  UNL1        0.1198
     27 C          66.3110   92.1499   13.2316 C.2     1  UNL1        0.0238
     28 C          65.0700   92.2649   12.3969 C.3     1  UNL1        0.0703
@<TRIPOS>BOND
     1     1     2    2
     2     2     9    1
     3     9    10    1
     4     9    12    1
     5    12    13   ar
     6    13    14   ar
     7    14    15   ar
     8    15    16   ar
     9    16    17   ar
    10     2     3   am
    11     3     4    1
    12     4     5    1
    13     5     6    1
    14     6    18    1
    15    18    20    1
    16    20    21    2
    17    21    22    1
    18    22    23    2
    19    23    24    1
    20    24    25    2
    21    25    26    1
    22    26    27    2
    23    27    28    1
    24     6     7    1
    25     7     8    1
    26    17    12   ar
    27     8     3    1
    28    28    20    1
    29    27    23    1
    30    10    11    1
    31    18    19    1
