@<TRIPOS>MOLECULE
*****
 32 36 0 0 0
SMALL
GASTEIGER

@<TRIPOS>ATOM
      1 C          63.4608   86.8104   15.2495 C.ar    1  UNL1        0.1646
      2 N          64.0011   87.6612   14.1385 N.ar    1  UNL1       -0.2224
      3 C          64.1203   89.0672   14.6473 C.ar    1  UNL1        0.1074
      4 C          63.6536   89.0854   16.0728 C.ar    1  UNL1        0.0588
      5 S          63.2460   87.6907   16.4450 S.2     1  UNL1       -0.0508
      6 C          64.6187   90.2477   13.8675 C.ar    1  UNL1        0.1026
      7 C          63.8682   90.7179   12.6569 C.ar    1  UNL1        0.0224
      8 C          64.3665   91.8984   11.8772 C.ar    1  UNL1        0.0239
      9 C          65.6154   92.6088   12.3082 C.ar    1  UNL1        0.1189
     10 C          66.3659   92.1386   13.5188 C.ar    1  UNL1        0.2416
     11 N          65.8675   90.9581   14.2985 N.ar    1  UNL1       -0.2089
     12 N          66.1138   93.7894   11.5284 N.ar    1  UNL1       -0.2826
     13 C          66.1751   95.2063   12.0168 C.ar    1  UNL1        0.1826
     14 N          66.7375   96.0529   10.9137 N.ar    1  UNL1       -0.2280
     15 C          67.0238   95.1592    9.7435 C.ar    1  UNL1        0.0786
     16 C          67.5952   95.5890    8.4248 C.3     1  UNL1        0.0538
     17 C          66.6382   93.7602   10.1234 C.ar    1  UNL1        0.0963
     18 O          67.6148   92.8490   13.9497 O.3     1  UNL1       -0.4551
     19 C          67.6757   93.5094   15.2951 C.3     1  UNL1        0.2543
     20 N          63.1838   85.3379   15.1777 N.pl3   1  UNL1       -0.2784
     21 H          63.0981   84.8122   16.0056 H       1  UNL1        0.1555
     22 N          62.5547   83.2656   13.6110 N.ar    1  UNL1       -0.2380
     23 N          62.5671   83.0113   12.1327 N.ar    1  UNL1       -0.1726
     24 C          63.0576   84.2550   11.4526 C.ar    1  UNL1        0.0807
     25 C          63.3483   85.2779   12.5104 C.ar    1  UNL1        0.0505
     26 C          63.0375   84.6665   13.8444 C.ar    1  UNL1        0.1317
     27 C          63.2274   84.4428    9.9742 C.3     1  UNL1        0.0372
     28 C          64.1447   83.2957    9.6695 C.3     1  UNL1        0.0060
     29 C          63.0788   85.0290    8.6015 C.3     1  UNL1        0.0060
     30 C          62.3692   85.6551    9.7652 C.3     1  UNL1        0.0060
     31 C          61.3158   81.0884   14.3001 C.3     1  UNL1        0.0285
     32 C          62.1335   82.2903   14.6699 C.3     1  UNL1        0.1289
@<TRIPOS>BOND
     1    31    32    1
     2    32    22    1
     3    22    23   ar
     4    23    24   ar
     5    24    27    1
     6    27    28    1
     7    27    29    1
     8    29    30    1
     9    24    25   ar
    10    25    26   ar
    11    26    20    1
    12    20     1    1
    13     1     2   ar
    14     2     3   ar
    15     3     6    1
    16     6     7   ar
    17     7     8   ar
    18     8     9   ar
    19     9    12    1
    20    12    13   ar
    21    13    14   ar
    22    14    15   ar
    23    15    16    1
    24    15    17   ar
    25     9    10   ar
    26    10    18    1
    27    18    19    1
    28    10    11   ar
    29     3     4   ar
    30     4     5   ar
    31    26    22   ar
    32     5     1   ar
    33    30    27    1
    34    11     6   ar
    35    17    12   ar
    36    20    21    1
@<TRIPOS>MOLECULE
*****
 32 36 0 0 0
SMALL
GASTEIGER

@<TRIPOS>ATOM
      1 C          63.1570   90.3245   12.3075 C.ar    1  UNL1        0.1646
      2 N          63.4520   88.9008   12.6763 N.ar    1  UNL1       -0.2224
      3 C          62.6780   88.0118   11.7487 C.ar    1  UNL1        0.1074
      4 C          61.9047   88.8860   10.8065 C.ar    1  UNL1        0.0588
      5 S          62.2008   90.3154   11.1518 S.2     1  UNL1       -0.0508
      6 C          62.6774   86.5118   11.7610 C.ar    1  UNL1        0.1026
      7 C          62.3302   85.7516   10.5154 C.ar    1  UNL1        0.0224
      8 C          62.3296   84.2517   10.5279 C.ar    1  UNL1        0.0239
      9 C          62.6763   83.5119   11.7858 C.ar    1  UNL1        0.1189
     10 C          63.0235   84.2721   13.0314 C.ar    1  UNL1        0.2416
     11 N          63.0241   85.7720   13.0190 N.ar    1  UNL1       -0.2089
     12 N          62.6757   82.0119   11.7982 N.ar    1  UNL1       -0.2826
     13 C          62.4718   81.1402   13.0018 C.ar    1  UNL1        0.1826
     14 N          62.5489   79.7099   12.5567 N.ar    1  UNL1       -0.2280
     15 C          62.8005   79.6976   11.0779 C.ar    1  UNL1        0.0786
     16 C          62.9479   78.4769   10.2187 C.3     1  UNL1        0.0538
     17 C          62.8788   81.1203   10.6092 C.ar    1  UNL1        0.0963
     18 O          63.3702   83.5323   14.2894 O.3     1  UNL1       -0.4551
     19 C          62.6595   83.8561   15.5700 C.3     1  UNL1        0.2543
     20 N          63.7196   91.5434   12.9767 N.pl3   1  UNL1       -0.2784
     21 H          63.2402   91.9563   13.7310 H       1  UNL1        0.1555
     22 N          66.2026   92.4603   13.3493 N.ar    1  UNL1       -0.2380
     23 N          67.2681   93.0287   12.4594 N.ar    1  UNL1       -0.1726
     24 C          66.7364   93.0528   11.0570 C.ar    1  UNL1        0.0807
     25 C          65.3425   92.4994   11.0801 C.ar    1  UNL1        0.0505
     26 C          65.0126   92.1332   12.4968 C.ar    1  UNL1        0.1317
     27 C          67.4700   93.5442    9.8444 C.3     1  UNL1        0.0372
     28 C          68.2841   92.3264    9.5212 C.3     1  UNL1        0.0060
     29 C          67.9209   94.4584    8.7441 C.3     1  UNL1        0.0060
     30 C          66.9108   94.9325    9.7465 C.3     1  UNL1        0.0060
     31 C          67.2512   93.0967   15.6396 C.3     1  UNL1        0.0285
     32 C          66.3086   92.2550   14.8314 C.3     1  UNL1        0.1289
@<TRIPOS>BOND
     1    31    32    1
     2    32    22    1
     3    22    23   ar
     4    23    24   ar
     5    24    27    1
     6    27    28    1
     7    27    29    1
     8    29    30    1
     9    24    25   ar
    10    25    26   ar
    11    26    20    1
    12    20     1    1
    13     1     2   ar
    14     2     3   ar
    15     3     6    1
    16     6     7   ar
    17     7     8   ar
    18     8     9   ar
    19     9    12    1
    20    12    13   ar
    21    13    14   ar
    22    14    15   ar
    23    15    16    1
    24    15    17   ar
    25     9    10   ar
    26    10    18    1
    27    18    19    1
    28    10    11   ar
    29     3     4   ar
    30     4     5   ar
    31    26    22   ar
    32     5     1   ar
    33    30    27    1
    34    11     6   ar
    35    17    12   ar
    36    20    21    1
@<TRIPOS>MOLECULE
*****
 32 36 0 0 0
SMALL
GASTEIGER

@<TRIPOS>ATOM
      1 C          63.4704   91.2126   11.1279 C.ar    1  UNL1        0.1646
      2 N          63.7515   89.9291   11.8515 N.ar    1  UNL1       -0.2224
      3 C          62.8050   88.8876   11.3326 C.ar    1  UNL1        0.1074
      4 C          61.9390   89.5274   10.2882 C.ar    1  UNL1        0.0588
      5 S          62.3502   90.9643   10.1617 S.2     1  UNL1       -0.0508
      6 C          62.7365   87.4573   11.7795 C.ar    1  UNL1        0.1026
      7 C          61.9439   86.4609   10.9865 C.ar    1  UNL1        0.0224
      8 C          61.8755   85.0307   11.4335 C.ar    1  UNL1        0.0239
      9 C          62.5997   84.5969   12.6734 C.ar    1  UNL1        0.1189
     10 C          63.3923   85.5933   13.4663 C.ar    1  UNL1        0.2416
     11 N          63.4608   87.0235   13.0194 N.ar    1  UNL1       -0.2089
     12 N          62.5312   83.1666   13.1203 N.ar    1  UNL1       -0.2826
     13 C          62.3209   82.6917   14.5275 C.ar    1  UNL1        0.1826
     14 N          62.3207   81.1918   14.5155 N.ar    1  UNL1       -0.2280
     15 C          62.5310   80.7396   13.1007 C.ar    1  UNL1        0.0786
     16 C          62.5992   79.3168   12.6308 C.3     1  UNL1        0.0538
     17 C          62.6611   81.9601   12.2385 C.ar    1  UNL1        0.0963
     18 O          64.1165   85.1595   14.7062 O.3     1  UNL1       -0.4551
     19 C          63.7970   85.8002   16.0243 C.3     1  UNL1        0.2543
     20 N          64.1842   92.5157   11.3342 N.pl3   1  UNL1       -0.2784
     21 H          63.8089   93.3467   10.9631 H       1  UNL1        0.1555
     22 N          66.8474   92.6491   11.5201 N.ar    1  UNL1       -0.2380
     23 N          67.8328   92.6556   12.6511 N.ar    1  UNL1       -0.1726
     24 C          67.0642   92.5629   13.9359 C.ar    1  UNL1        0.0807
     25 C          65.6040   92.4992   13.5990 C.ar    1  UNL1        0.0505
     26 C          65.4700   92.5525   12.1059 C.ar    1  UNL1        0.1317
     27 C          67.6526   92.5382   15.3154 C.3     1  UNL1        0.0372
     28 C          66.3961   92.5375   16.1347 C.3     1  UNL1        0.0060
     29 C          68.6775   92.5139   16.4104 C.3     1  UNL1        0.0060
     30 C          69.1135   92.5304   14.9753 C.3     1  UNL1        0.0060
     31 C          68.4822   92.1737    9.5575 C.3     1  UNL1        0.0285
     32 C          67.1810   92.7259   10.0597 C.3     1  UNL1        0.1289
@<TRIPOS>BOND
     1    31    32    1
     2    32    22    1
     3    22    23   ar
     4    23    24   ar
     5    24    27    1
     6    27    28    1
     7    27    29    1
     8    29    30    1
     9    24    25   ar
    10    25    26   ar
    11    26    20    1
    12    20     1    1
    13     1     2   ar
    14     2     3   ar
    15     3     6    1
    16     6     7   ar
    17     7     8   ar
    18     8     9   ar
    19     9    12    1
    20    12    13   ar
    21    13    14   ar
    22    14    15   ar
    23    15    16    1
    24    15    17   ar
    25     9    10   ar
    26    10    18    1
    27    18    19    1
    28    10    11   ar
    29     3     4   ar
    30     4     5   ar
    31    26    22   ar
    32     5     1   ar
    33    30    27    1
    34    11     6   ar
    35    17    12   ar
    36    20    21    1
@<TRIPOS>MOLECULE
*****
 32 36 0 0 0
SMALL
GASTEIGER

@<TRIPOS>ATOM
      1 C          64.3307   90.8528   14.1327 C.ar    1  UNL1        0.1646
      2 N          64.2604   89.6101   13.2957 N.ar    1  UNL1       -0.2224
      3 C          63.8795   88.4688   14.1915 C.ar    1  UNL1        0.1074
      4 C          63.7145   89.0063   15.5822 C.ar    1  UNL1        0.0588
      5 S          63.9933   90.4797   15.5459 S.2     1  UNL1       -0.0508
      6 C          63.6960   87.0408   13.7706 C.ar    1  UNL1        0.1026
      7 C          64.2931   85.9349   14.5893 C.ar    1  UNL1        0.0224
      8 C          64.1095   84.5070   14.1684 C.ar    1  UNL1        0.0239
      9 C          63.3287   84.1849   12.9287 C.ar    1  UNL1        0.1189
     10 C          62.7316   85.2908   12.1100 C.ar    1  UNL1        0.2416
     11 N          62.9152   86.7188   12.5309 N.ar    1  UNL1       -0.2089
     12 N          63.1452   82.7569   12.5078 N.ar    1  UNL1       -0.2826
     13 C          62.7860   81.6117   13.4076 C.ar    1  UNL1        0.1826
     14 N          62.7074   80.3704   12.5691 N.ar    1  UNL1       -0.2280
     15 C          63.0179   80.7485   11.1511 C.ar    1  UNL1        0.0786
     16 C          63.0519   79.8154    9.9771 C.3     1  UNL1        0.0538
     17 C          63.2885   82.2234   11.1132 C.ar    1  UNL1        0.0963
     18 O          61.9509   84.9688   10.8703 O.3     1  UNL1       -0.4551
     19 C          61.2858   86.0680   10.0962 C.3     1  UNL1        0.2543
     20 N          64.6775   92.2275   13.6426 N.pl3   1  UNL1       -0.2784
     21 H          64.1373   93.0011   13.9235 H       1  UNL1        0.1555
     22 N          67.2791   92.1067   13.0409 N.ar    1  UNL1       -0.2380
     23 N          68.1077   92.4580   11.8408 N.ar    1  UNL1       -0.1726
     24 C          67.1880   92.9918   10.7829 C.ar    1  UNL1        0.0807
     25 C          65.7912   92.9704   11.3290 C.ar    1  UNL1        0.0505
     26 C          65.8475   92.4234   12.7246 C.ar    1  UNL1        0.1317
     27 C          67.5940   93.4640    9.4183 C.3     1  UNL1        0.0372
     28 C          68.4997   92.3394    9.0121 C.3     1  UNL1        0.0060
     29 C          67.6855   94.3269    8.1947 C.3     1  UNL1        0.0060
     30 C          66.8294   94.7527    9.3504 C.3     1  UNL1        0.0060
     31 C          67.7785   92.3741   15.5765 C.3     1  UNL1        0.0285
     32 C          67.7922   91.5385   14.3309 C.3     1  UNL1        0.1289
@<TRIPOS>BOND
     1    31    32    1
     2    32    22    1
     3    22    23   ar
     4    23    24   ar
     5    24    27    1
     6    27    28    1
     7    27    29    1
     8    29    30    1
     9    24    25   ar
    10    25    26   ar
    11    26    20    1
    12    20     1    1
    13     1     2   ar
    14     2     3   ar
    15     3     6    1
    16     6     7   ar
    17     7     8   ar
    18     8     9   ar
    19     9    12    1
    20    12    13   ar
    21    13    14   ar
    22    14    15   ar
    23    15    16    1
    24    15    17   ar
    25     9    10   ar
    26    10    18    1
    27    18    19    1
    28    10    11   ar
    29     3     4   ar
    30     4     5   ar
    31    26    22   ar
    32     5     1   ar
    33    30    27    1
    34    11     6   ar
    35    17    12   ar
    36    20    21    1
@<TRIPOS>MOLECULE
*****
 32 36 0 0 0
SMALL
GASTEIGER

@<TRIPOS>ATOM
      1 C          65.0787   91.2843   14.7018 C.ar    1  UNL1        0.1646
      2 N          65.2058   89.9377   14.0535 N.ar    1  UNL1       -0.2224
      3 C          64.2508   89.0031   14.7349 C.ar    1  UNL1        0.1074
      4 C          63.5334   89.7721   15.8045 C.ar    1  UNL1        0.0588
      5 S          64.0451   91.1820   15.7841 S.2     1  UNL1       -0.0508
      6 C          64.0486   87.5538   14.4049 C.ar    1  UNL1        0.1026
      7 C          64.4439   86.4972   15.3934 C.ar    1  UNL1        0.0224
      8 C          64.2417   85.0481   15.0633 C.ar    1  UNL1        0.0239
      9 C          63.6442   84.6555   13.7446 C.ar    1  UNL1        0.1189
     10 C          63.2489   85.7121   12.7561 C.ar    1  UNL1        0.2416
     11 N          63.4511   87.1613   13.0862 N.ar    1  UNL1       -0.2089
     12 N          63.4420   83.2063   13.4145 N.ar    1  UNL1       -0.2826
     13 C          64.2667   82.3964   12.4584 C.ar    1  UNL1        0.1826
     14 N          63.7141   81.0021   12.4355 N.ar    1  UNL1       -0.2280
     15 C          62.5478   80.9503   13.3775 C.ar    1  UNL1        0.0786
     16 C          61.6988   79.7474   13.6641 C.3     1  UNL1        0.0538
     17 C          62.3797   82.3125   13.9825 C.ar    1  UNL1        0.0963
     18 O          62.6514   85.3196   11.4374 O.3     1  UNL1       -0.4551
     19 C          61.4236   86.0179   10.9327 C.3     1  UNL1        0.2543
     20 N          65.8498   92.5169   14.3328 N.pl3   1  UNL1       -0.2784
     21 H          66.3905   92.9811   15.0120 H       1  UNL1        0.1555
     22 N          64.9347   92.5133   11.8213 N.ar    1  UNL1       -0.2380
     23 N          65.2021   93.3328   10.5937 N.ar    1  UNL1       -0.1726
     24 C          66.2299   94.3683   10.9427 C.ar    1  UNL1        0.0807
     25 C          66.5975   94.1886   12.3857 C.ar    1  UNL1        0.0505
     26 C          65.7971   93.0422   12.9288 C.ar    1  UNL1        0.1317
     27 C          66.7913   95.4019   10.0118 C.3     1  UNL1        0.0372
     28 C          66.1620   96.6374   10.5844 C.3     1  UNL1        0.0060
     29 C          67.5712   96.0064    8.8822 C.3     1  UNL1        0.0060
     30 C          67.6155   94.5255    9.1160 C.3     1  UNL1        0.0060
     31 C          63.1702   90.9520   10.7263 C.3     1  UNL1        0.0285
     32 C          63.9736   91.3661   11.9234 C.3     1  UNL1        0.1289
@<TRIPOS>BOND
     1    31    32    1
     2    32    22    1
     3    22    23   ar
     4    23    24   ar
     5    24    27    1
     6    27    28    1
     7    27    29    1
     8    29    30    1
     9    24    25   ar
    10    25    26   ar
    11    26    20    1
    12    20     1    1
    13     1     2   ar
    14     2     3   ar
    15     3     6    1
    16     6     7   ar
    17     7     8   ar
    18     8     9   ar
    19     9    12    1
    20    12    13   ar
    21    13    14   ar
    22    14    15   ar
    23    15    16    1
    24    15    17   ar
    25     9    10   ar
    26    10    18    1
    27    18    19    1
    28    10    11   ar
    29     3     4   ar
    30     4     5   ar
    31    26    22   ar
    32     5     1   ar
    33    30    27    1
    34    11     6   ar
    35    17    12   ar
    36    20    21    1
@<TRIPOS>MOLECULE
*****
 32 36 0 0 0
SMALL
GASTEIGER

@<TRIPOS>ATOM
      1 C          63.7332   86.9729   15.7446 C.ar    1  UNL1        0.1646
      2 N          64.3947   87.7480   14.6438 N.ar    1  UNL1       -0.2224
      3 C          64.1653   89.2076   14.9022 C.ar    1  UNL1        0.1074
      4 C          63.3621   89.3347   16.1626 C.ar    1  UNL1        0.0588
      5 S          63.0951   87.9535   16.6833 S.2     1  UNL1       -0.0508
      6 C          64.6535   90.3413   14.0497 C.ar    1  UNL1        0.1026
      7 C          65.7769   91.2113   14.5302 C.ar    1  UNL1        0.0224
      8 C          66.2650   92.3449   13.6778 C.ar    1  UNL1        0.0239
      9 C          65.6296   92.6085   12.3448 C.ar    1  UNL1        0.1189
     10 C          64.5062   91.7385   11.8643 C.ar    1  UNL1        0.2416
     11 N          64.0181   90.6049   12.7167 N.ar    1  UNL1       -0.2089
     12 N          66.1178   93.7422   11.4924 N.ar    1  UNL1       -0.2826
     13 C          66.1812   95.1853   11.8965 C.ar    1  UNL1        0.1826
     14 N          66.7308   95.9668   10.7401 N.ar    1  UNL1       -0.2280
     15 C          67.0071   95.0066    9.6213 C.ar    1  UNL1        0.0786
     16 C          67.5644   95.3593    8.2741 C.3     1  UNL1        0.0538
     17 C          66.6282   93.6317   10.0863 C.ar    1  UNL1        0.0963
     18 O          63.8708   92.0021   10.5313 O.3     1  UNL1       -0.4551
     19 C          62.8380   91.0571    9.9927 C.3     1  UNL1        0.2543
     20 N          63.7134   85.4793   15.8825 N.pl3   1  UNL1       -0.2784
     21 H          63.9178   85.0624   16.7506 H       1  UNL1        0.1555
     22 N          63.1383   85.1051   13.2991 N.ar    1  UNL1       -0.2380
     23 N          62.8421   83.9113   12.4404 N.ar    1  UNL1       -0.1726
     24 C          62.9029   82.6895   13.3086 C.ar    1  UNL1        0.0807
     25 C          63.2366   83.1282   14.7036 C.ar    1  UNL1        0.0505
     26 C          63.3822   84.6211   14.6977 C.ar    1  UNL1        0.1317
     27 C          62.6706   81.2771   12.8603 C.3     1  UNL1        0.0372
     28 C          63.0806   81.3895   11.4218 C.3     1  UNL1        0.0060
     29 C          62.2960   79.8255   12.9116 C.3     1  UNL1        0.0060
     30 C          62.1799   80.6740   14.1431 C.3     1  UNL1        0.0060
     31 C          62.4592   86.9412   11.5910 C.3     1  UNL1        0.0285
     32 C          63.1829   86.5323   12.8396 C.3     1  UNL1        0.1289
@<TRIPOS>BOND
     1    31    32    1
     2    32    22    1
     3    22    23   ar
     4    23    24   ar
     5    24    27    1
     6    27    28    1
     7    27    29    1
     8    29    30    1
     9    24    25   ar
    10    25    26   ar
    11    26    20    1
    12    20     1    1
    13     1     2   ar
    14     2     3   ar
    15     3     6    1
    16     6     7   ar
    17     7     8   ar
    18     8     9   ar
    19     9    12    1
    20    12    13   ar
    21    13    14   ar
    22    14    15   ar
    23    15    16    1
    24    15    17   ar
    25     9    10   ar
    26    10    18    1
    27    18    19    1
    28    10    11   ar
    29     3     4   ar
    30     4     5   ar
    31    26    22   ar
    32     5     1   ar
    33    30    27    1
    34    11     6   ar
    35    17    12   ar
    36    20    21    1
@<TRIPOS>MOLECULE
*****
 32 36 0 0 0
SMALL
GASTEIGER

@<TRIPOS>ATOM
      1 C          58.8966   89.9859    6.0723 C.ar    1  UNL1        0.1646
      2 N          60.1373   90.4080    5.3428 N.ar    1  UNL1       -0.2224
      3 C          59.7781   91.5506    4.4399 C.ar    1  UNL1        0.1074
      4 C          58.3153   91.8347    4.6114 C.ar    1  UNL1        0.0588
      5 S          57.7704   90.8677    5.6203 S.2     1  UNL1       -0.0508
      6 C          60.7169   92.2810    3.5258 C.ar    1  UNL1        0.1026
      7 C          62.1286   91.8015    3.3618 C.ar    1  UNL1        0.0224
      8 C          63.0673   92.5319    2.4478 C.ar    1  UNL1        0.0239
      9 C          62.5943   93.7418    1.6979 C.ar    1  UNL1        0.1189
     10 C          61.1825   94.2213    1.8620 C.ar    1  UNL1        0.2416
     11 N          60.2438   93.4909    2.7759 N.ar    1  UNL1       -0.2089
     12 N          63.5330   94.4721    0.7839 N.ar    1  UNL1       -0.2826
     13 C          64.7561   95.2335    1.2016 C.ar    1  UNL1        0.1826
     14 N          65.3926   95.8013   -0.0323 N.ar    1  UNL1       -0.2280
     15 C          64.5627   95.3908   -1.2126 C.ar    1  UNL1        0.0786
     16 C          64.8345   95.7404   -2.6458 C.3     1  UNL1        0.0538
     17 C          63.4135   94.5694   -0.7081 C.ar    1  UNL1        0.0963
     18 O          60.7094   95.4312    1.1121 O.3     1  UNL1       -0.4551
     19 C          59.4231   95.3808    0.3421 C.3     1  UNL1        0.2543
     20 N          58.7990   88.8767    7.0775 N.pl3   1  UNL1       -0.2784
     21 H          58.0052   88.2946    7.0926 H       1  UNL1        0.1555
     22 N          60.5616   87.3396    8.3718 N.ar    1  UNL1       -0.2380
     23 N          61.6202   87.5806    9.4069 N.ar    1  UNL1       -0.1726
     24 C          61.6236   89.0445    9.7342 C.ar    1  UNL1        0.0807
     25 C          60.5673   89.7082    8.9014 C.ar    1  UNL1        0.0505
     26 C          59.9109   88.6545    8.0594 C.ar    1  UNL1        0.1317
     27 C          62.5252   89.7251   10.7210 C.3     1  UNL1        0.0372
     28 C          62.6676   88.6335   11.7399 C.3     1  UNL1        0.0060
     29 C          63.3774   90.7849   11.3540 C.3     1  UNL1        0.0060
     30 C          62.6960   91.0532   10.0449 C.3     1  UNL1        0.0060
     31 C          61.2751   85.2066    7.0715 C.3     1  UNL1        0.0285
     32 C          60.2146   86.0161    7.7571 C.3     1  UNL1        0.1289
@<TRIPOS>BOND
     1    31    32    1
     2    32    22    1
     3    22    23   ar
     4    23    24   ar
     5    24    27    1
     6    27    28    1
     7    27    29    1
     8    29    30    1
     9    24    25   ar
    10    25    26   ar
    11    26    20    1
    12    20     1    1
    13     1     2   ar
    14     2     3   ar
    15     3     6    1
    16     6     7   ar
    17     7     8   ar
    18     8     9   ar
    19     9    12    1
    20    12    13   ar
    21    13    14   ar
    22    14    15   ar
    23    15    16    1
    24    15    17   ar
    25     9    10   ar
    26    10    18    1
    27    18    19    1
    28    10    11   ar
    29     3     4   ar
    30     4     5   ar
    31    26    22   ar
    32     5     1   ar
    33    30    27    1
    34    11     6   ar
    35    17    12   ar
    36    20    21    1
@<TRIPOS>MOLECULE
*****
 32 36 0 0 0
SMALL
GASTEIGER

@<TRIPOS>ATOM
      1 C          61.4906   87.9699   10.0802 C.ar    1  UNL1        0.1646
      2 N          62.6762   88.2389   10.9588 N.ar    1  UNL1       -0.2224
      3 C          62.6350   89.6826   11.3638 C.ar    1  UNL1        0.1074
      4 C          61.4239   90.3059   10.7354 C.ar    1  UNL1        0.0588
      5 S          60.7167   89.2474    9.9420 S.2     1  UNL1       -0.0508
      6 C          63.6301   90.3806   12.2428 C.ar    1  UNL1        0.1026
      7 C          63.9847   89.8021   13.5805 C.ar    1  UNL1        0.0224
      8 C          64.9798   90.5000   14.4595 C.ar    1  UNL1        0.0239
      9 C          65.6203   91.7765   14.0008 C.ar    1  UNL1        0.1189
     10 C          65.2656   92.3550   12.6631 C.ar    1  UNL1        0.2416
     11 N          64.2706   91.6571   11.7841 N.ar    1  UNL1       -0.2089
     12 N          66.6154   92.4745   14.8798 N.ar    1  UNL1       -0.2826
     13 C          66.3809   92.9268   16.2907 C.ar    1  UNL1        0.1826
     14 N          67.6402   93.5745   16.7852 N.ar    1  UNL1       -0.2280
     15 C          68.6531   93.5224   15.6799 C.ar    1  UNL1        0.0786
     16 C          70.0534   94.0565   15.7415 C.3     1  UNL1        0.0538
     17 C          68.0197   92.8426   14.5024 C.ar    1  UNL1        0.0963
     18 O          65.9061   93.6315   12.2043 O.3     1  UNL1       -0.4551
     19 C          66.6153   93.6823   10.8836 C.3     1  UNL1        0.2543
     20 N          61.1405   86.6544    9.4502 N.pl3   1  UNL1       -0.2784
     21 H          60.3621   86.5872    8.8511 H       1  UNL1        0.1555
     22 N          62.7516   84.6497    8.7220 N.ar    1  UNL1       -0.2380
     23 N          63.4380   83.5260    9.4405 N.ar    1  UNL1       -0.1726
     24 C          63.0868   83.6233   10.8956 C.ar    1  UNL1        0.0807
     25 C          62.1834   84.8070   11.0763 C.ar    1  UNL1        0.0505
     26 C          61.9763   85.4414    9.7330 C.ar    1  UNL1        0.1317
     27 C          63.5565   82.6991   11.9796 C.3     1  UNL1        0.0372
     28 C          64.2955   83.6723   12.8496 C.3     1  UNL1        0.0060
     29 C          63.7697   81.4369   12.7615 C.3     1  UNL1        0.0060
     30 C          62.9808   81.4049   11.4862 C.3     1  UNL1        0.0060
     31 C          61.6857   84.5531    6.3546 C.3     1  UNL1        0.0285
     32 C          62.8273   84.9321    7.2507 C.3     1  UNL1        0.1289
@<TRIPOS>BOND
     1    31    32    1
     2    32    22    1
     3    22    23   ar
     4    23    24   ar
     5    24    27    1
     6    27    28    1
     7    27    29    1
     8    29    30    1
     9    24    25   ar
    10    25    26   ar
    11    26    20    1
    12    20     1    1
    13     1     2   ar
    14     2     3   ar
    15     3     6    1
    16     6     7   ar
    17     7     8   ar
    18     8     9   ar
    19     9    12    1
    20    12    13   ar
    21    13    14   ar
    22    14    15   ar
    23    15    16    1
    24    15    17   ar
    25     9    10   ar
    26    10    18    1
    27    18    19    1
    28    10    11   ar
    29     3     4   ar
    30     4     5   ar
    31    26    22   ar
    32     5     1   ar
    33    30    27    1
    34    11     6   ar
    35    17    12   ar
    36    20    21    1
@<TRIPOS>MOLECULE
*****
 32 36 0 0 0
SMALL
GASTEIGER

@<TRIPOS>ATOM
      1 C          63.4095   88.7579   16.5007 C.ar    1  UNL1        0.1646
      2 N          63.4905   87.7892   15.3583 N.ar    1  UNL1       -0.2224
      3 C          63.0735   86.4401   15.8641 C.ar    1  UNL1        0.1074
      4 C          62.7347   86.5750   17.3191 C.ar    1  UNL1        0.0588
      5 S          62.9424   88.0074   17.7126 S.2     1  UNL1       -0.0508
      6 C          63.0068   85.1777   15.0566 C.ar    1  UNL1        0.1026
      7 C          62.9348   83.8483   15.7477 C.ar    1  UNL1        0.0224
      8 C          62.8682   82.5860   14.9402 C.ar    1  UNL1        0.0239
      9 C          62.8736   82.6530   13.4417 C.ar    1  UNL1        0.1189
     10 C          62.9456   83.9823   12.7507 C.ar    1  UNL1        0.2416
     11 N          63.0122   85.2447   13.5581 N.ar    1  UNL1       -0.2089
     12 N          62.8069   81.3905   12.6343 N.ar    1  UNL1       -0.2826
     13 C          62.4907   80.0224   13.1616 C.ar    1  UNL1        0.1826
     14 N          62.5331   79.0609   12.0111 N.ar    1  UNL1       -0.2280
     15 C          62.8757   79.8349   10.7726 C.ar    1  UNL1        0.0786
     16 C          63.0231   79.2685    9.3915 C.3     1  UNL1        0.0538
     17 C          63.0449   81.2747   11.1578 C.ar    1  UNL1        0.0963
     18 O          62.9510   84.0493   11.2522 O.3     1  UNL1       -0.4551
     19 C          62.3560   85.2351   10.5523 C.3     1  UNL1        0.2543
     20 N          63.7380   90.2203   16.4416 N.pl3   1  UNL1       -0.2784
     21 H          63.6966   90.7676   17.2590 H       1  UNL1        0.1555
     22 N          65.2036   91.8775   14.9415 N.ar    1  UNL1       -0.2380
     23 N          65.2537   92.2237   13.4828 N.ar    1  UNL1       -0.1726
     24 C          64.2104   91.4090   12.7771 C.ar    1  UNL1        0.0807
     25 C          63.5157   90.5595   13.7995 C.ar    1  UNL1        0.0505
     26 C          64.1295   90.8490   15.1372 C.ar    1  UNL1        0.1317
     27 C          63.9140   91.4388   11.3070 C.3     1  UNL1        0.0372
     28 C          65.0166   92.3409   10.8371 C.3     1  UNL1        0.0060
     29 C          63.2347   91.1554   10.0000 C.3     1  UNL1        0.0060
     30 C          62.7085   90.5472   11.2662 C.3     1  UNL1        0.0060
     31 C          67.5524   92.5896   15.7936 C.3     1  UNL1        0.0285
     32 C          66.0748   92.4580   16.0158 C.3     1  UNL1        0.1289
@<TRIPOS>BOND
     1    31    32    1
     2    32    22    1
     3    22    23   ar
     4    23    24   ar
     5    24    27    1
     6    27    28    1
     7    27    29    1
     8    29    30    1
     9    24    25   ar
    10    25    26   ar
    11    26    20    1
    12    20     1    1
    13     1     2   ar
    14     2     3   ar
    15     3     6    1
    16     6     7   ar
    17     7     8   ar
    18     8     9   ar
    19     9    12    1
    20    12    13   ar
    21    13    14   ar
    22    14    15   ar
    23    15    16    1
    24    15    17   ar
    25     9    10   ar
    26    10    18    1
    27    18    19    1
    28    10    11   ar
    29     3     4   ar
    30     4     5   ar
    31    26    22   ar
    32     5     1   ar
    33    30    27    1
    34    11     6   ar
    35    17    12   ar
    36    20    21    1
