@<TRIPOS>MOLECULE
*****
 22 24 0 0 0
SMALL
GASTEIGER

@<TRIPOS>ATOM
      1 C          63.1714   90.0885   12.1158 C.3     1  UNL1        0.0973
      2 C          62.4591   90.8512   11.0383 C.3     1  UNL1        0.2124
      3 O          61.6532   90.1175   10.0077 O.3     1  UNL1       -0.4753
      4 C          61.5596   88.6211   10.0545 C.ar    1  UNL1        0.1368
      5 C          60.7537   87.8874    9.0239 C.ar    1  UNL1        0.0366
      6 C          60.6601   86.3911    9.0709 C.ar    1  UNL1        0.0031
      7 C          61.3723   85.6285   10.1484 C.ar    1  UNL1       -0.0000
      8 C          62.1782   86.3622   11.1790 C.ar    1  UNL1        0.0011
      9 C          62.2719   87.8585   11.1321 C.ar    1  UNL1        0.0387
     10 C          63.0778   88.5922   12.1627 C.3     1  UNL1        0.1432
     11 O          63.7901   87.8296   13.2402 O.3     1  UNL1       -0.3795
     12 H          63.6270   86.8802   13.1262 H       1  UNL1        0.2108
     13 C          65.7713   92.6014   13.7516 C.ar    1  UNL1        0.1718
     14 C          64.9654   91.8677   12.7211 C.ar    1  UNL1        0.0360
     15 C          63.9773   90.8223   13.1464 C.ar    1  UNL1       -0.0130
     16 C          63.7952   90.5106   14.6023 C.ar    1  UNL1       -0.0008
     17 C          64.6011   91.2444   15.6329 C.ar    1  UNL1        0.0395
     18 C          65.5892   92.2898   15.2075 C.ar    1  UNL1        0.1677
     19 O          66.3951   93.0236   16.2382 O.3     1  UNL1       -0.5029
     20 H          66.2813   92.8289   17.1476 H       1  UNL1        0.2923
     21 C          66.4450   94.5499   12.1706 C.3     1  UNL1        0.2526
     22 O          66.7593   93.6468   13.3263 O.3     1  UNL1       -0.4684
@<TRIPOS>BOND
     1    21    22    1
     2    22    13    1
     3    13    14   ar
     4    14    15   ar
     5     1    15    1
     6     1     2    1
     7     2     3    1
     8     3     4    1
     9     4     5   ar
    10     5     6   ar
    11     6     7   ar
    12     7     8   ar
    13     8     9   ar
    14     9    10    1
    15    10    11    1
    16    15    16   ar
    17    16    17   ar
    18    17    18   ar
    19    18    19    1
    20    18    13   ar
    21    10     1    1
    22     9     4   ar
    23    11    12    1
    24    19    20    1
@<TRIPOS>MOLECULE
*****
 22 24 0 0 0
SMALL
GASTEIGER

@<TRIPOS>ATOM
      1 C          63.8833   86.2762   14.7447 C.3     1  UNL1        0.0973
      2 C          64.3388   85.2232   15.7110 C.3     1  UNL1        0.2124
      3 O          64.3732   83.7838   15.2905 O.3     1  UNL1       -0.4753
      4 C          63.9521   83.3973   13.9036 C.ar    1  UNL1        0.1368
      5 C          63.9866   81.9579   13.4831 C.ar    1  UNL1        0.0366
      6 C          63.5655   81.5715   12.0963 C.ar    1  UNL1        0.0031
      7 C          63.1100   82.6245   11.1299 C.ar    1  UNL1       -0.0000
      8 C          63.0756   84.0639   11.5505 C.ar    1  UNL1        0.0011
      9 C          63.4967   84.4503   12.9373 C.ar    1  UNL1        0.0387
     10 C          63.4623   85.8898   13.3579 C.3     1  UNL1        0.1432
     11 O          63.0068   86.9428   12.3916 O.3     1  UNL1       -0.3795
     12 H          62.7725   86.5270   11.5471 H       1  UNL1        0.2108
     13 C          64.4377   90.2058   14.7154 C.ar    1  UNL1        0.1718
     14 C          64.4721   88.7664   14.2949 C.ar    1  UNL1        0.0360
     15 C          63.8489   87.7157   15.1653 C.ar    1  UNL1       -0.0130
     16 C          63.1913   88.1043   16.4562 C.ar    1  UNL1       -0.0008
     17 C          63.1569   89.5437   16.8767 C.ar    1  UNL1        0.0395
     18 C          63.7801   90.5945   16.0064 C.ar    1  UNL1        0.1677
     19 O          63.7457   92.0340   16.4269 O.3     1  UNL1       -0.5029
     20 H          63.3349   92.2767   17.2333 H       1  UNL1        0.2923
     21 C          66.4645   91.7144   14.1102 C.3     1  UNL1        0.2526
     22 O          65.0609   91.2566   13.8451 O.3     1  UNL1       -0.4684
@<TRIPOS>BOND
     1    21    22    1
     2    22    13    1
     3    13    14   ar
     4    14    15   ar
     5     1    15    1
     6     1     2    1
     7     2     3    1
     8     3     4    1
     9     4     5   ar
    10     5     6   ar
    11     6     7   ar
    12     7     8   ar
    13     8     9   ar
    14     9    10    1
    15    10    11    1
    16    15    16   ar
    17    16    17   ar
    18    17    18   ar
    19    18    19    1
    20    18    13   ar
    21    10     1    1
    22     9     4   ar
    23    11    12    1
    24    19    20    1
@<TRIPOS>MOLECULE
*****
 22 24 0 0 0
SMALL
GASTEIGER

@<TRIPOS>ATOM
      1 C          63.0154   89.9196   11.4230 C.3     1  UNL1        0.0973
      2 C          63.3446   89.2853   12.7418 C.3     1  UNL1        0.2124
      3 O          64.3283   89.9413   13.6648 O.3     1  UNL1       -0.4753
      4 C          64.9829   91.2316   13.2690 C.ar    1  UNL1        0.1368
      5 C          65.9666   91.8876   14.1920 C.ar    1  UNL1        0.0366
      6 C          66.6212   93.1778   13.7962 C.ar    1  UNL1        0.0031
      7 C          66.2920   93.8121   12.4773 C.ar    1  UNL1       -0.0000
      8 C          65.3083   93.1562   11.5543 C.ar    1  UNL1        0.0011
      9 C          64.6538   91.8659   11.9502 C.ar    1  UNL1        0.0387
     10 C          63.6700   91.2099   11.0271 C.3     1  UNL1        0.1432
     11 O          63.3408   91.8442    9.7083 O.3     1  UNL1       -0.3795
     12 H          63.8466   92.6660    9.6096 H       1  UNL1        0.2108
     13 C          61.3515   87.2599    8.9925 C.ar    1  UNL1        0.1718
     14 C          62.3352   87.9159    9.9155 C.ar    1  UNL1        0.0360
     15 C          62.0316   89.2636   10.4999 C.ar    1  UNL1       -0.0130
     16 C          60.7444   89.9553   10.1614 C.ar    1  UNL1       -0.0008
     17 C          59.7608   89.2993    9.2384 C.ar    1  UNL1        0.0395
     18 C          60.0643   87.9516    8.6540 C.ar    1  UNL1        0.1677
     19 O          59.0805   87.2955    7.7310 O.3     1  UNL1       -0.5029
     20 H          58.2764   87.7276    7.5195 H       1  UNL1        0.2923
     21 C          63.0259   85.3219    8.5563 C.3     1  UNL1        0.2526
     22 O          61.6550   85.9122    8.4081 O.3     1  UNL1       -0.4684
@<TRIPOS>BOND
     1    21    22    1
     2    22    13    1
     3    13    14   ar
     4    14    15   ar
     5     1    15    1
     6     1     2    1
     7     2     3    1
     8     3     4    1
     9     4     5   ar
    10     5     6   ar
    11     6     7   ar
    12     7     8   ar
    13     8     9   ar
    14     9    10    1
    15    10    11    1
    16    15    16   ar
    17    16    17   ar
    18    17    18   ar
    19    18    19    1
    20    18    13   ar
    21    10     1    1
    22     9     4   ar
    23    11    12    1
    24    19    20    1
@<TRIPOS>MOLECULE
*****
 22 24 0 0 0
SMALL
GASTEIGER

@<TRIPOS>ATOM
      1 C          63.2510   90.5058   11.2462 C.3     1  UNL1        0.0973
      2 C          63.8977   91.5753   10.4168 C.3     1  UNL1        0.2124
      3 O          64.9031   92.4999   11.0367 O.3     1  UNL1       -0.4753
      4 C          65.2617   92.3551   12.4860 C.ar    1  UNL1        0.1368
      5 C          66.2671   93.2797   13.1059 C.ar    1  UNL1        0.0366
      6 C          66.6257   93.1348   14.5552 C.ar    1  UNL1        0.0031
      7 C          65.9789   92.0653   15.3845 C.ar    1  UNL1       -0.0000
      8 C          64.9736   91.1407   14.7647 C.ar    1  UNL1        0.0011
      9 C          64.6150   91.2856   13.3154 C.ar    1  UNL1        0.0387
     10 C          63.6096   90.3609   12.6955 C.3     1  UNL1        0.1432
     11 O          62.9628   89.2914   13.5248 O.3     1  UNL1       -0.3795
     12 H          63.3035   89.3353   14.4319 H       1  UNL1        0.2108
     13 C          61.3469   87.1766   10.2261 C.ar    1  UNL1        0.1718
     14 C          62.3522   88.1012   10.8460 C.ar    1  UNL1        0.0360
     15 C          62.2456   89.5812   10.6263 C.ar    1  UNL1       -0.0130
     16 C          61.1336   90.1365    9.7866 C.ar    1  UNL1       -0.0008
     17 C          60.1282   89.2119    9.1667 C.ar    1  UNL1        0.0395
     18 C          60.2349   87.7319    9.3865 C.ar    1  UNL1        0.1677
     19 O          59.2295   86.8073    8.7665 O.3     1  UNL1       -0.5029
     20 H          58.5349   87.1542    8.2420 H       1  UNL1        0.2923
     21 C          62.3096   85.1629   11.5559 C.3     1  UNL1        0.2526
     22 O          61.4536   85.6966   10.4458 O.3     1  UNL1       -0.4684
@<TRIPOS>BOND
     1    21    22    1
     2    22    13    1
     3    13    14   ar
     4    14    15   ar
     5     1    15    1
     6     1     2    1
     7     2     3    1
     8     3     4    1
     9     4     5   ar
    10     5     6   ar
    11     6     7   ar
    12     7     8   ar
    13     8     9   ar
    14     9    10    1
    15    10    11    1
    16    15    16   ar
    17    16    17   ar
    18    17    18   ar
    19    18    19    1
    20    18    13   ar
    21    10     1    1
    22     9     4   ar
    23    11    12    1
    24    19    20    1
@<TRIPOS>MOLECULE
*****
 22 24 0 0 0
SMALL
GASTEIGER

@<TRIPOS>ATOM
      1 C          62.6832   89.6413   10.6025 C.3     1  UNL1        0.0973
      2 C          63.0564   90.9779   10.0330 C.3     1  UNL1        0.2124
      3 O          63.9177   91.9165   10.8250 O.3     1  UNL1       -0.4753
      4 C          64.4057   91.5186   12.1864 C.ar    1  UNL1        0.1368
      5 C          65.2670   92.4572   12.9783 C.ar    1  UNL1        0.0366
      6 C          65.7550   92.0593   14.3397 C.ar    1  UNL1        0.0031
      7 C          65.3818   90.7227   14.9092 C.ar    1  UNL1       -0.0000
      8 C          64.5206   89.7841   14.1173 C.ar    1  UNL1        0.0011
      9 C          64.0325   90.1820   12.7559 C.ar    1  UNL1        0.0387
     10 C          63.1712   89.2434   11.9639 C.3     1  UNL1        0.1432
     11 O          62.7980   87.9068   12.5334 O.3     1  UNL1       -0.3795
     12 H          63.1925   87.8090   13.4141 H       1  UNL1        0.2108
     13 C          59.8670   88.3053    8.1461 C.ar    1  UNL1        0.1718
     14 C          60.7283   89.2438    8.9380 C.ar    1  UNL1        0.0360
     15 C          61.8219   88.7027    9.8105 C.ar    1  UNL1       -0.0130
     16 C          62.0542   87.2230    9.8910 C.ar    1  UNL1       -0.0008
     17 C          61.1929   86.2845    9.0990 C.ar    1  UNL1        0.0395
     18 C          60.0993   86.8256    8.2266 C.ar    1  UNL1        0.1677
     19 O          59.2380   85.8869    7.4346 O.3     1  UNL1       -0.5029
     20 H          59.3831   84.9626    7.4849 H       1  UNL1        0.2923
     21 C          59.1019   89.8024    6.1654 C.3     1  UNL1        0.2526
     22 O          58.7734   88.8464    7.2736 O.3     1  UNL1       -0.4684
@<TRIPOS>BOND
     1    21    22    1
     2    22    13    1
     3    13    14   ar
     4    14    15   ar
     5     1    15    1
     6     1     2    1
     7     2     3    1
     8     3     4    1
     9     4     5   ar
    10     5     6   ar
    11     6     7   ar
    12     7     8   ar
    13     8     9   ar
    14     9    10    1
    15    10    11    1
    16    15    16   ar
    17    16    17   ar
    18    17    18   ar
    19    18    19    1
    20    18    13   ar
    21    10     1    1
    22     9     4   ar
    23    11    12    1
    24    19    20    1
@<TRIPOS>MOLECULE
*****
 22 24 0 0 0
SMALL
GASTEIGER

@<TRIPOS>ATOM
      1 C          63.0570   85.5477   12.3132 C.3     1  UNL1        0.0973
      2 C          63.7417   86.2041   13.4752 C.3     1  UNL1        0.2124
      3 O          63.8364   87.6996   13.5427 O.3     1  UNL1       -0.4753
      4 C          63.2464   88.5387   12.4482 C.ar    1  UNL1        0.1368
      5 C          63.3411   90.0341   12.5157 C.ar    1  UNL1        0.0366
      6 C          62.7512   90.8731   11.4212 C.ar    1  UNL1        0.0031
      7 C          62.0665   90.2166   10.2591 C.ar    1  UNL1       -0.0000
      8 C          61.9718   88.7212   10.1916 C.ar    1  UNL1        0.0011
      9 C          62.5618   87.8822   11.2861 C.ar    1  UNL1        0.0387
     10 C          62.4671   86.3867   11.2187 C.3     1  UNL1        0.1432
     11 O          61.7824   85.7302   10.0566 O.3     1  UNL1       -0.3795
     12 H          61.4605   86.4104    9.4446 H       1  UNL1        0.2108
     13 C          62.1921   81.7974   13.2816 C.ar    1  UNL1        0.1718
     14 C          62.2868   83.2929   13.3490 C.ar    1  UNL1        0.0360
     15 C          62.9623   84.0521   12.2457 C.ar    1  UNL1       -0.0130
     16 C          63.5432   83.3159   11.0750 C.ar    1  UNL1       -0.0008
     17 C          63.4485   81.8205   11.0076 C.ar    1  UNL1        0.0395
     18 C          62.7730   81.0612   12.1109 C.ar    1  UNL1        0.1677
     19 O          62.6783   79.5657   12.0434 O.3     1  UNL1       -0.5029
     20 H          63.0411   79.1058   11.3121 H       1  UNL1        0.2923
     21 C          60.1245   80.5142   14.1915 C.3     1  UNL1        0.2526
     22 O          61.5166   81.0382   14.3848 O.3     1  UNL1       -0.4684
@<TRIPOS>BOND
     1    21    22    1
     2    22    13    1
     3    13    14   ar
     4    14    15   ar
     5     1    15    1
     6     1     2    1
     7     2     3    1
     8     3     4    1
     9     4     5   ar
    10     5     6   ar
    11     6     7   ar
    12     7     8   ar
    13     8     9   ar
    14     9    10    1
    15    10    11    1
    16    15    16   ar
    17    16    17   ar
    18    17    18   ar
    19    18    19    1
    20    18    13   ar
    21    10     1    1
    22     9     4   ar
    23    11    12    1
    24    19    20    1
@<TRIPOS>MOLECULE
*****
 22 24 0 0 0
SMALL
GASTEIGER

@<TRIPOS>ATOM
      1 C          63.0048   85.8510   12.2203 C.3     1  UNL1        0.0973
      2 C          62.3647   86.6600   11.1314 C.3     1  UNL1        0.2124
      3 O          62.4213   88.1582   11.1780 O.3     1  UNL1       -0.4753
      4 C          63.1180   88.8474   12.3137 C.ar    1  UNL1        0.1368
      5 C          63.1746   90.3456   12.3603 C.ar    1  UNL1        0.0366
      6 C          63.8713   91.0348   13.4959 C.ar    1  UNL1        0.0031
      7 C          64.5114   90.2258   14.5848 C.ar    1  UNL1       -0.0000
      8 C          64.4548   88.7276   14.5382 C.ar    1  UNL1        0.0011
      9 C          63.7581   88.0384   13.4026 C.ar    1  UNL1        0.0387
     10 C          63.7015   86.5402   13.3559 C.3     1  UNL1        0.1432
     11 O          64.3416   85.7312   14.4448 O.3     1  UNL1       -0.3795
     12 H          64.7448   86.3267   15.0957 H       1  UNL1        0.2108
     13 C          62.2754   82.0916   13.2619 C.ar    1  UNL1        0.1718
     14 C          62.3321   83.5898   13.3086 C.ar    1  UNL1        0.0360
     15 C          62.9482   84.3527   12.1736 C.ar    1  UNL1       -0.0130
     16 C          63.5077   83.6175   10.9919 C.ar    1  UNL1       -0.0008
     17 C          63.4511   82.1194   10.9453 C.ar    1  UNL1        0.0395
     18 C          62.8349   81.3564   12.0803 C.ar    1  UNL1        0.1677
     19 O          62.7783   79.8581   12.0336 O.3     1  UNL1       -0.5029
     20 H          63.1279   79.3989   11.2954 H       1  UNL1        0.2923
     21 C          60.3730   80.5853   14.1901 C.3     1  UNL1        0.2526
     22 O          61.6593   81.3286   14.3969 O.3     1  UNL1       -0.4684
@<TRIPOS>BOND
     1    21    22    1
     2    22    13    1
     3    13    14   ar
     4    14    15   ar
     5     1    15    1
     6     1     2    1
     7     2     3    1
     8     3     4    1
     9     4     5   ar
    10     5     6   ar
    11     6     7   ar
    12     7     8   ar
    13     8     9   ar
    14     9    10    1
    15    10    11    1
    16    15    16   ar
    17    16    17   ar
    18    17    18   ar
    19    18    19    1
    20    18    13   ar
    21    10     1    1
    22     9     4   ar
    23    11    12    1
    24    19    20    1
@<TRIPOS>MOLECULE
*****
 22 24 0 0 0
SMALL
GASTEIGER

@<TRIPOS>ATOM
      1 C          62.3171   89.8446   11.4838 C.3     1  UNL1        0.0973
      2 C          61.4659   90.7811   10.6786 C.3     1  UNL1        0.2124
      3 O          60.6001   90.2475    9.5761 O.3     1  UNL1       -0.4753
      4 C          60.5854   88.7772    9.2788 C.ar    1  UNL1        0.1368
      5 C          59.7195   88.2436    8.1763 C.ar    1  UNL1        0.0366
      6 C          59.7049   86.7735    7.8791 C.ar    1  UNL1        0.0031
      7 C          60.5561   85.8369    8.6843 C.ar    1  UNL1       -0.0000
      8 C          61.4220   86.3706    9.7868 C.ar    1  UNL1        0.0011
      9 C          61.4366   87.8407   10.0840 C.ar    1  UNL1        0.0387
     10 C          62.3025   88.3744   11.1865 C.3     1  UNL1        0.1432
     11 O          63.1537   87.4379   11.9918 O.3     1  UNL1       -0.3795
     12 H          63.0273   86.5307   11.6726 H       1  UNL1        0.2108
     13 C          63.7416   90.5693   15.1164 C.ar    1  UNL1        0.1718
     14 C          62.8757   90.0356   14.0139 C.ar    1  UNL1        0.0360
     15 C          63.1830   90.3783   12.5863 C.ar    1  UNL1       -0.0130
     16 C          64.3562   91.2546   12.2612 C.ar    1  UNL1       -0.0008
     17 C          65.2220   91.7883   13.3637 C.ar    1  UNL1        0.0395
     18 C          64.9147   91.4456   14.7913 C.ar    1  UNL1        0.1677
     19 O          65.7806   91.9793   15.8938 O.3     1  UNL1       -0.5029
     20 H          66.5134   92.5267   15.6907 H       1  UNL1        0.2923
     21 C          63.0837   88.8170   16.9182 C.3     1  UNL1        0.2526
     22 O          63.4343   90.2266   16.5441 O.3     1  UNL1       -0.4684
@<TRIPOS>BOND
     1    21    22    1
     2    22    13    1
     3    13    14   ar
     4    14    15   ar
     5     1    15    1
     6     1     2    1
     7     2     3    1
     8     3     4    1
     9     4     5   ar
    10     5     6   ar
    11     6     7   ar
    12     7     8   ar
    13     8     9   ar
    14     9    10    1
    15    10    11    1
    16    15    16   ar
    17    16    17   ar
    18    17    18   ar
    19    18    19    1
    20    18    13   ar
    21    10     1    1
    22     9     4   ar
    23    11    12    1
    24    19    20    1
@<TRIPOS>MOLECULE
*****
 22 24 0 0 0
SMALL
GASTEIGER

@<TRIPOS>ATOM
      1 C          63.0569   85.5932   12.2878 C.3     1  UNL1        0.0973
      2 C          63.2258   85.0556   10.8976 C.3     1  UNL1        0.2124
      3 O          63.1373   83.5792   10.6486 O.3     1  UNL1       -0.4753
      4 C          62.8800   82.6401   11.7897 C.ar    1  UNL1        0.1368
      5 C          62.7916   81.1636   11.5406 C.ar    1  UNL1        0.0366
      6 C          62.5342   80.2247   12.6817 C.ar    1  UNL1        0.0031
      7 C          62.3654   80.7622   14.0718 C.ar    1  UNL1       -0.0000
      8 C          62.4539   82.2387   14.3209 C.ar    1  UNL1        0.0011
      9 C          62.7112   83.1776   13.1798 C.ar    1  UNL1        0.0387
     10 C          62.7996   84.6542   13.4289 C.3     1  UNL1        0.1432
     11 O          62.6308   85.1918   14.8190 O.3     1  UNL1       -0.3795
     12 H          62.4727   84.4574   15.4327 H       1  UNL1        0.2108
     13 C          62.5199   89.5040   11.8786 C.ar    1  UNL1        0.1718
     14 C          62.4315   88.0275   11.6296 C.ar    1  UNL1        0.0360
     15 C          63.1454   87.0698   12.5369 C.ar    1  UNL1       -0.0130
     16 C          63.9478   87.5886   13.6931 C.ar    1  UNL1       -0.0008
     17 C          64.0363   89.0651   13.9421 C.ar    1  UNL1        0.0395
     18 C          63.3223   90.0228   13.0348 C.ar    1  UNL1        0.1677
     19 O          63.4108   91.4994   13.2839 O.3     1  UNL1       -0.5029
     20 H          63.9120   91.8235   14.0062 H       1  UNL1        0.2923
     21 C          60.3424   90.2837   10.6952 C.3     1  UNL1        0.2526
     22 O          61.8060   90.4617   10.9714 O.3     1  UNL1       -0.4684
@<TRIPOS>BOND
     1    21    22    1
     2    22    13    1
     3    13    14   ar
     4    14    15   ar
     5     1    15    1
     6     1     2    1
     7     2     3    1
     8     3     4    1
     9     4     5   ar
    10     5     6   ar
    11     6     7   ar
    12     7     8   ar
    13     8     9   ar
    14     9    10    1
    15    10    11    1
    16    15    16   ar
    17    16    17   ar
    18    17    18   ar
    19    18    19    1
    20    18    13   ar
    21    10     1    1
    22     9     4   ar
    23    11    12    1
    24    19    20    1
