@<TRIPOS>MOLECULE
*****
 35 39 0 0 0
SMALL
GASTEIGER

@<TRIPOS>ATOM
      1 C          59.2320   86.6457    7.8892 C.3     1  UNL1        0.0339
      2 C          59.9168   87.3765    9.0059 C.3     1  UNL1        0.1351
      3 C          60.9662   86.6834    9.8234 C.3     1  UNL1        0.1231
      4 N          61.6510   87.4141   10.9401 N.am    1  UNL1       -0.2724
      5 C          62.7005   86.7209   11.7575 C.2     1  UNL1        0.2507
      6 O          63.3853   87.4517   12.8742 O.2     1  UNL1       -0.2698
      7 C          61.2865   88.8380   11.2393 C.3     1  UNL1        0.1097
      8 C          60.2371   89.5312   10.4218 C.3     1  UNL1        0.1621
      9 O          59.5523   88.8004    9.3051 O.3     1  UNL1       -0.3527
     10 C          63.0650   85.2970   11.4583 C.ar    1  UNL1        0.0738
     11 C          63.1980   84.8399   10.0359 C.ar    1  UNL1        0.0061
     12 C          63.5626   83.4159    9.7367 C.ar    1  UNL1        0.0011
     13 C          63.7941   82.4491   10.8600 C.ar    1  UNL1        0.0130
     14 C          63.6611   82.9063   12.2824 C.ar    1  UNL1        0.0771
     15 CL         63.8927   81.9395   13.4057 Cl      1  UNL1       -0.0806
     16 C          63.2966   84.3302   12.5816 C.ar    1  UNL1        0.1177
     17 N          63.1636   84.7873   14.0041 N.ar    1  UNL1       -0.1468
     18 N          64.2481   85.4038   14.8371 N.ar    1  UNL1       -0.1447
     19 C          63.6775   85.7057   16.1911 C.ar    1  UNL1        0.1446
     20 C          62.2404   85.2759   16.1949 C.ar    1  UNL1        0.1446
     21 N          61.9228   84.7083   14.8432 N.ar    1  UNL1       -0.1447
     22 C          61.9713   89.5688   12.3559 C.3     1  UNL1        0.0510
     23 C          63.1093   90.4991   12.0567 C.ar    1  UNL1        0.0071
     24 C          64.0955   90.8479   13.1318 C.ar    1  UNL1        0.0011
     25 C          65.2334   91.7783   12.8326 C.ar    1  UNL1        0.0356
     26 C          65.3852   92.3598   11.4582 C.ar    1  UNL1        0.0053
     27 C          64.3990   92.0111   10.3832 C.ar    1  UNL1        0.0294
     28 C          63.2610   91.0807   10.6824 C.ar    1  UNL1        0.1362
     29 F          62.2749   90.7319    9.6073 F       1  UNL1       -0.2045
     30 C          66.2196   92.1271   13.9077 C.ar    1  UNL1        0.1622
     31 N          65.7400   92.4259   15.2971 N.ar    1  UNL1       -0.2250
     32 C          66.7261   92.7746   16.3722 C.ar    1  UNL1        0.1022
     33 C          68.1919   92.8247   16.0578 C.ar    1  UNL1        0.0414
     34 C          68.6716   92.5259   14.6684 C.ar    1  UNL1        0.1022
     35 N          67.6854   92.1771   13.5933 N.ar    1  UNL1       -0.2250
@<TRIPOS>BOND
     1     2     1    1
     2     2     3    1
     3     3     4    1
     4     4     5   am
     5     5     6    2
     6     5    10    1
     7    10    11   ar
     8    11    12   ar
     9    12    13   ar
    10    13    14   ar
    11    14    15    1
    12    14    16   ar
    13    16    17    1
    14    17    18   ar
    15    18    19   ar
    16    19    20   ar
    17    20    21   ar
    18     4     7    1
    19     7    22    1
    20    22    23    1
    21    23    24   ar
    22    24    25   ar
    23    25    30    1
    24    30    31   ar
    25    31    32   ar
    26    32    33   ar
    27    33    34   ar
    28    34    35   ar
    29    25    26   ar
    30    26    27   ar
    31    27    28   ar
    32    28    29    1
    33     7     8    1
    34     8     9    1
    35     9     2    1
    36    16    10   ar
    37    21    17   ar
    38    28    23   ar
    39    35    30   ar
@<TRIPOS>MOLECULE
*****
 35 39 0 0 0
SMALL
GASTEIGER

@<TRIPOS>ATOM
      1 C          60.0147   88.8586    7.9165 C.3     1  UNL1        0.0339
      2 C          60.6477   89.1274    9.2495 C.3     1  UNL1        0.1351
      3 C          61.4307   88.0497    9.9390 C.3     1  UNL1        0.1231
      4 N          62.0637   88.3185   11.2720 N.am    1  UNL1       -0.2724
      5 C          62.8467   87.2407   11.9614 C.2     1  UNL1        0.2507
      6 O          63.4797   87.5095   13.2945 O.2     1  UNL1       -0.2698
      7 C          61.9137   89.6650   11.9156 C.3     1  UNL1        0.1097
      8 C          61.1307   90.7428   11.2262 C.3     1  UNL1        0.1621
      9 O          60.4977   90.4740    9.8931 O.3     1  UNL1       -0.3527
     10 C          62.9967   85.8941   11.3178 C.ar    1  UNL1        0.0738
     11 C          62.9742   85.7706    9.8231 C.ar    1  UNL1        0.0061
     12 C          63.1242   84.4240    9.1795 C.ar    1  UNL1        0.0011
     13 C          63.2967   83.2010   10.0306 C.ar    1  UNL1        0.0130
     14 C          63.3192   83.3245   11.5253 C.ar    1  UNL1        0.0771
     15 CL         63.4917   82.1015   12.3764 Cl      1  UNL1       -0.0806
     16 C          63.1692   84.6710   12.1689 C.ar    1  UNL1        0.1177
     17 N          63.1917   84.7946   13.6637 N.ar    1  UNL1       -0.1468
     18 N          64.4012   85.0687   14.5076 N.ar    1  UNL1       -0.1447
     19 C          63.9656   85.1092   15.9425 C.ar    1  UNL1        0.1446
     20 C          62.4871   84.8601   15.9853 C.ar    1  UNL1        0.1446
     21 N          62.0088   84.6656   14.5770 N.ar    1  UNL1       -0.1447
     22 C          62.5467   89.9338   13.2487 C.3     1  UNL1        0.0510
     23 C          63.8799   90.6174   13.3217 C.ar    1  UNL1        0.0071
     24 C          64.3533   91.4623   12.1762 C.ar    1  UNL1        0.0011
     25 C          65.6864   92.1459   12.2492 C.ar    1  UNL1        0.0356
     26 C          66.5462   91.9847   13.4677 C.ar    1  UNL1        0.0053
     27 C          66.0729   91.1399   14.6132 C.ar    1  UNL1        0.0294
     28 C          64.7397   90.4562   14.5402 C.ar    1  UNL1        0.1362
     29 F          64.2663   89.6114   15.6857 F       1  UNL1       -0.2045
     30 C          66.1599   92.9908   11.1037 C.ar    1  UNL1        0.1622
     31 N          65.5364   94.3318   10.8530 N.ar    1  UNL1       -0.2250
     32 C          66.0097   95.1766    9.7075 C.ar    1  UNL1        0.1022
     33 C          67.1066   94.6805    8.8128 C.ar    1  UNL1        0.0414
     34 C          67.7301   93.3394    9.0635 C.ar    1  UNL1        0.1022
     35 N          67.2568   92.4946   10.2090 N.ar    1  UNL1       -0.2250
@<TRIPOS>BOND
     1     2     1    1
     2     2     3    1
     3     3     4    1
     4     4     5   am
     5     5     6    2
     6     5    10    1
     7    10    11   ar
     8    11    12   ar
     9    12    13   ar
    10    13    14   ar
    11    14    15    1
    12    14    16   ar
    13    16    17    1
    14    17    18   ar
    15    18    19   ar
    16    19    20   ar
    17    20    21   ar
    18     4     7    1
    19     7    22    1
    20    22    23    1
    21    23    24   ar
    22    24    25   ar
    23    25    30    1
    24    30    31   ar
    25    31    32   ar
    26    32    33   ar
    27    33    34   ar
    28    34    35   ar
    29    25    26   ar
    30    26    27   ar
    31    27    28   ar
    32    28    29    1
    33     7     8    1
    34     8     9    1
    35     9     2    1
    36    16    10   ar
    37    21    17   ar
    38    28    23   ar
    39    35    30   ar
@<TRIPOS>MOLECULE
*****
 35 39 0 0 0
SMALL
GASTEIGER

@<TRIPOS>ATOM
      1 C          64.4390   84.3858   14.0442 C.3     1  UNL1        0.0339
      2 C          64.2590   85.8748   14.0204 C.3     1  UNL1        0.1351
      3 C          63.5584   86.5272   12.8657 C.3     1  UNL1        0.1231
      4 N          63.3784   88.0162   12.8420 N.am    1  UNL1       -0.2724
      5 C          62.6777   88.6686   11.6872 C.2     1  UNL1        0.2507
      6 O          62.4976   90.1576   11.6634 O.2     1  UNL1       -0.2698
      7 C          63.8990   88.8527   13.9729 C.3     1  UNL1        0.1097
      8 C          64.5996   88.2003   15.1276 C.3     1  UNL1        0.1621
      9 O          64.7796   86.7113   15.1514 O.3     1  UNL1       -0.3527
     10 C          62.1570   87.8320   10.5562 C.ar    1  UNL1        0.0738
     11 C          63.0700   86.8744    9.8496 C.ar    1  UNL1        0.0061
     12 C          62.5493   86.0378    8.7186 C.ar    1  UNL1        0.0011
     13 C          61.1157   86.1589    8.2943 C.ar    1  UNL1        0.0130
     14 C          60.2028   87.1166    9.0009 C.ar    1  UNL1        0.0771
     15 CL         58.7692   87.2377    8.5766 Cl      1  UNL1       -0.0806
     16 C          60.7234   87.9531   10.1319 C.ar    1  UNL1        0.1177
     17 N          59.8104   88.9108   10.8385 N.ar    1  UNL1       -0.1468
     18 N          59.5684   90.3416   10.4584 N.ar    1  UNL1       -0.1447
     19 C          58.5876   90.9209   11.4344 C.ar    1  UNL1        0.1446
     20 C          58.2233   89.8481   12.4175 C.ar    1  UNL1        0.1446
     21 N          58.9791   88.6059   12.0493 N.ar    1  UNL1       -0.1447
     22 C          63.7189   90.3417   13.9492 C.3     1  UNL1        0.0510
     23 C          64.9183   91.2416   13.9104 C.ar    1  UNL1        0.0071
     24 C          65.4985   91.6617   12.5924 C.ar    1  UNL1        0.0011
     25 C          66.6979   92.5616   12.5536 C.ar    1  UNL1        0.0356
     26 C          67.3171   93.0416   13.8328 C.ar    1  UNL1        0.0053
     27 C          66.7370   92.6216   15.1507 C.ar    1  UNL1        0.0294
     28 C          65.5375   91.7216   15.1895 C.ar    1  UNL1        0.1362
     29 F          64.9574   91.3016   16.5075 F       1  UNL1       -0.2045
     30 C          67.2781   92.9817   11.2357 C.ar    1  UNL1        0.1622
     31 N          66.9448   94.3280   10.6644 N.ar    1  UNL1       -0.2250
     32 C          67.5250   94.7481    9.3465 C.ar    1  UNL1        0.1022
     33 C          68.4384   93.8219    8.5999 C.ar    1  UNL1        0.0414
     34 C          68.7717   92.4755    9.1711 C.ar    1  UNL1        0.1022
     35 N          68.1916   92.0554   10.4890 N.ar    1  UNL1       -0.2250
@<TRIPOS>BOND
     1     2     1    1
     2     2     3    1
     3     3     4    1
     4     4     5   am
     5     5     6    2
     6     5    10    1
     7    10    11   ar
     8    11    12   ar
     9    12    13   ar
    10    13    14   ar
    11    14    15    1
    12    14    16   ar
    13    16    17    1
    14    17    18   ar
    15    18    19   ar
    16    19    20   ar
    17    20    21   ar
    18     4     7    1
    19     7    22    1
    20    22    23    1
    21    23    24   ar
    22    24    25   ar
    23    25    30    1
    24    30    31   ar
    25    31    32   ar
    26    32    33   ar
    27    33    34   ar
    28    34    35   ar
    29    25    26   ar
    30    26    27   ar
    31    27    28   ar
    32    28    29    1
    33     7     8    1
    34     8     9    1
    35     9     2    1
    36    16    10   ar
    37    21    17   ar
    38    28    23   ar
    39    35    30   ar
