@<TRIPOS>MOLECULE
*****
 32 36 0 0 0
SMALL
GASTEIGER

@<TRIPOS>ATOM
      1 C          64.1008   87.8622   14.0117 C.ar    1  UNL1        0.0722
      2 C          64.8858   88.8885   14.7737 C.ar    1  UNL1        0.0828
      3 N          65.0018   90.2878   14.2459 N.ar    1  UNL1       -0.2947
      4 C          64.3327   90.6608   12.9563 C.ar    1  UNL1        0.2767
      5 O          64.4487   92.0601   12.4286 O.2     1  UNL1       -0.2654
      6 C          63.5477   89.6345   12.1944 C.ar    1  UNL1        0.1170
      7 C          63.4318   88.2352   12.7221 C.ar    1  UNL1        0.0277
      8 C          62.5975   87.4441   11.7587 C.ar    1  UNL1        0.0175
      9 C          62.1502   86.0124   11.7590 C.ar    1  UNL1        0.0015
     10 C          61.3032   85.4910   10.6362 C.ar    1  UNL1        0.0001
     11 C          60.9035   86.4014    9.5131 C.ar    1  UNL1        0.0015
     12 C          61.3509   87.8331    9.5127 C.ar    1  UNL1        0.0172
     13 C          62.1979   88.3544   10.6355 C.ar    1  UNL1        0.0601
     14 N          62.7851   89.7082   10.9048 N.ar    1  UNL1       -0.3214
     15 C          62.6360   90.9224   10.0368 C.3     1  UNL1        0.1306
     16 C          65.7868   91.3141   15.0079 C.3     1  UNL1        0.0885
     17 C          65.2573   92.1991   16.0971 C.3     1  UNL1        0.0227
     18 C          66.3823   93.0675   16.5767 C.3     1  UNL1        0.0020
     19 C          67.6072   92.7192   15.7840 C.3     1  UNL1        0.0020
     20 C          67.2391   91.6355   14.8144 C.3     1  UNL1        0.0227
     21 N          64.7756   85.3553   13.9084 N.am    1  UNL1       -0.2995
     22 C          63.9849   86.4628   14.5395 C.2     1  UNL1        0.2474
     23 O          63.0783   86.1711   15.6983 O.2     1  UNL1       -0.2701
     24 H          65.3706   85.5469   13.1477 H       1  UNL1        0.1498
     25 C          64.6596   83.9561   14.4362 C.3     1  UNL1        0.1056
     26 N          63.5896   82.5321   12.4431 N.3     1  UNL1       -0.2724
     27 C          62.4083   81.6175   12.3081 C.3     1  UNL1        0.0721
     28 C          61.7274   81.5399   13.6424 C.3     1  UNL1        0.0188
     29 C          62.4879   82.4064   14.6020 C.3     1  UNL1        0.0191
     30 C          63.6388   83.0197   13.8608 C.3     1  UNL1        0.0772
     31 C          64.0465   83.1794    9.9688 C.3     1  UNL1        0.0188
     32 C          64.5526   82.8953   11.3519 C.3     1  UNL1        0.0721
@<TRIPOS>BOND
     1    31    32    1
     2    32    26    1
     3    26    27    1
     4    27    28    1
     5    28    29    1
     6    29    30    1
     7    30    25    1
     8    25    21    1
     9    21    22   am
    10    22    23    2
    11    22     1    1
    12     1     2   ar
    13     2     3   ar
    14     3    16    1
    15    16    17    1
    16    17    18    1
    17    18    19    1
    18    19    20    1
    19     3     4   ar
    20     4     5    2
    21     4     6   ar
    22     6     7   ar
    23     7     8   ar
    24     8     9   ar
    25     9    10   ar
    26    10    11   ar
    27    11    12   ar
    28    12    13   ar
    29    13    14   ar
    30    14    15    1
    31    30    26    1
    32     7     1   ar
    33    13     8   ar
    34    20    16    1
    35    14     6   ar
    36    21    24    1
@<TRIPOS>MOLECULE
*****
 32 36 0 0 0
SMALL
GASTEIGER

@<TRIPOS>ATOM
      1 C          64.0048   88.1436   13.7965 C.ar    1  UNL1        0.0722
      2 C          64.8931   89.0569   14.5883 C.ar    1  UNL1        0.0828
      3 N          65.1411   90.4583   14.1144 N.ar    1  UNL1       -0.2947
      4 C          64.5010   90.9463   12.8488 C.ar    1  UNL1        0.2767
      5 O          64.7490   92.3477   12.3749 O.2     1  UNL1       -0.2654
      6 C          63.6127   90.0330   12.0570 C.ar    1  UNL1        0.1170
      7 C          63.3647   88.6316   12.5308 C.ar    1  UNL1        0.0277
      8 C          62.4488   87.9651   11.5476 C.ar    1  UNL1        0.0175
      9 C          61.8633   86.5850   11.4973 C.ar    1  UNL1        0.0015
     10 C          60.9598   86.1944   10.3655 C.ar    1  UNL1        0.0001
     11 C          60.6418   87.1838    9.2839 C.ar    1  UNL1        0.0015
     12 C          61.2273   88.5639    9.3341 C.ar    1  UNL1        0.0172
     13 C          62.1308   88.9545   10.4659 C.ar    1  UNL1        0.0601
     14 N          62.8502   90.2325   10.7808 N.ar    1  UNL1       -0.3214
     15 C          62.8134   91.4895    9.9630 C.3     1  UNL1        0.1306
     16 C          66.0293   91.3716   14.9062 C.3     1  UNL1        0.0885
     17 C          65.5913   92.2910   16.0075 C.3     1  UNL1        0.0227
     18 C          66.8027   93.0135   16.5177 C.3     1  UNL1        0.0020
     19 C          67.9896   92.5406   15.7317 C.3     1  UNL1        0.0020
     20 C          67.5116   91.5259   14.7358 C.3     1  UNL1        0.0227
     21 N          63.9929   85.5849   13.3457 N.am    1  UNL1       -0.2995
     22 C          63.7568   86.7421   14.2705 C.2     1  UNL1        0.2474
     23 O          63.2727   86.4981   15.6690 O.2     1  UNL1       -0.2701
     24 H          64.3106   85.7451   12.4278 H       1  UNL1        0.1498
     25 C          63.7448   84.1835   13.8197 C.3     1  UNL1        0.1056
     26 N          62.6670   81.8715   13.0211 N.3     1  UNL1       -0.2724
     27 C          62.7450   81.0390   11.7758 C.3     1  UNL1        0.0721
     28 C          63.6569   81.7350   10.8093 C.3     1  UNL1        0.0188
     29 C          64.1425   82.9976   11.4573 C.3     1  UNL1        0.0191
     30 C          63.5306   83.0820   12.8243 C.3     1  UNL1        0.0772
     31 C          60.6357   80.6987   14.1384 C.3     1  UNL1        0.0188
     32 C          61.8659   81.5500   14.2478 C.3     1  UNL1        0.0721
@<TRIPOS>BOND
     1    31    32    1
     2    32    26    1
     3    26    27    1
     4    27    28    1
     5    28    29    1
     6    29    30    1
     7    30    25    1
     8    25    21    1
     9    21    22   am
    10    22    23    2
    11    22     1    1
    12     1     2   ar
    13     2     3   ar
    14     3    16    1
    15    16    17    1
    16    17    18    1
    17    18    19    1
    18    19    20    1
    19     3     4   ar
    20     4     5    2
    21     4     6   ar
    22     6     7   ar
    23     7     8   ar
    24     8     9   ar
    25     9    10   ar
    26    10    11   ar
    27    11    12   ar
    28    12    13   ar
    29    13    14   ar
    30    14    15    1
    31    30    26    1
    32     7     1   ar
    33    13     8   ar
    34    20    16    1
    35    14     6   ar
    36    21    24    1
@<TRIPOS>MOLECULE
*****
 32 36 0 0 0
SMALL
GASTEIGER

@<TRIPOS>ATOM
      1 C          64.6595   90.1335   14.3183 C.ar    1  UNL1        0.0722
      2 C          65.7863   90.7781   15.0700 C.ar    1  UNL1        0.0828
      3 N          66.5321   91.9287   14.4620 N.ar    1  UNL1       -0.2947
      4 C          66.1512   92.4349   13.1023 C.ar    1  UNL1        0.2767
      5 O          66.8970   93.5855   12.4943 O.2     1  UNL1       -0.2654
      6 C          65.0244   91.7903   12.3506 C.ar    1  UNL1        0.1170
      7 C          64.2786   90.6396   12.9586 C.ar    1  UNL1        0.0277
      8 C          63.2202   90.2081   11.9872 C.ar    1  UNL1        0.0175
      9 C          62.1849   89.1244   12.0469 C.ar    1  UNL1        0.0015
     10 C          61.2412   88.9246   10.8981 C.ar    1  UNL1        0.0001
     11 C          61.3330   89.8086    9.6898 C.ar    1  UNL1        0.0015
     12 C          62.3683   90.8923    9.6301 C.ar    1  UNL1        0.0172
     13 C          63.3120   91.0920   10.7788 C.ar    1  UNL1        0.0601
     14 N          64.4270   92.0699   11.0035 N.ar    1  UNL1       -0.3214
     15 C          64.8673   93.1396   10.0485 C.3     1  UNL1        0.1306
     16 C          67.6589   92.5733   15.2136 C.3     1  UNL1        0.0885
     17 C          67.8558   94.0466   15.4146 C.3     1  UNL1        0.0227
     18 C          69.1051   94.2416   16.2215 C.3     1  UNL1        0.0020
     19 C          69.6804   92.8887   16.5192 C.3     1  UNL1        0.0020
     20 C          68.7866   91.8576   15.8963 C.3     1  UNL1        0.0227
     21 N          64.3646   87.5758   14.6671 N.am    1  UNL1       -0.2995
     22 C          63.9137   88.9828   14.9264 C.2     1  UNL1        0.2474
     23 O          62.7170   89.2391   15.7936 O.2     1  UNL1       -0.2701
     24 H          65.1501   87.4077   14.0978 H       1  UNL1        0.1498
     25 C          63.6188   86.4252   15.2751 C.3     1  UNL1        0.1056
     26 N          63.2808   84.7678   13.2054 N.3     1  UNL1       -0.2724
     27 C          63.4774   83.2978   12.9806 C.3     1  UNL1        0.0721
     28 C          63.9802   82.6965   14.2595 C.3     1  UNL1        0.0188
     29 C          64.0944   83.7948   15.2747 C.3     1  UNL1        0.0191
     30 C          63.6621   85.0750   14.6232 C.3     1  UNL1        0.0772
     31 C          62.0715   85.2785   10.9634 C.3     1  UNL1        0.0188
     32 C          62.7893   85.7569   12.1906 C.3     1  UNL1        0.0721
@<TRIPOS>BOND
     1    31    32    1
     2    32    26    1
     3    26    27    1
     4    27    28    1
     5    28    29    1
     6    29    30    1
     7    30    25    1
     8    25    21    1
     9    21    22   am
    10    22    23    2
    11    22     1    1
    12     1     2   ar
    13     2     3   ar
    14     3    16    1
    15    16    17    1
    16    17    18    1
    17    18    19    1
    18    19    20    1
    19     3     4   ar
    20     4     5    2
    21     4     6   ar
    22     6     7   ar
    23     7     8   ar
    24     8     9   ar
    25     9    10   ar
    26    10    11   ar
    27    11    12   ar
    28    12    13   ar
    29    13    14   ar
    30    14    15    1
    31    30    26    1
    32     7     1   ar
    33    13     8   ar
    34    20    16    1
    35    14     6   ar
    36    21    24    1
@<TRIPOS>MOLECULE
*****
 32 36 0 0 0
SMALL
GASTEIGER

@<TRIPOS>ATOM
      1 C          62.4533   88.7582   11.8237 C.ar    1  UNL1        0.0722
      2 C          61.6036   89.1062   10.6376 C.ar    1  UNL1        0.0828
      3 N          61.0908   88.0209    9.7380 N.ar    1  UNL1       -0.2947
      4 C          61.4277   86.5877   10.0246 C.ar    1  UNL1        0.2767
      5 O          60.9149   85.5024    9.1250 O.2     1  UNL1       -0.2654
      6 C          62.2775   86.2396   11.2107 C.ar    1  UNL1        0.1170
      7 C          62.7902   87.3249   12.1102 C.ar    1  UNL1        0.0277
      8 C          63.6003   86.6822   13.1969 C.ar    1  UNL1        0.0175
      9 C          64.3474   87.2554   14.3644 C.ar    1  UNL1        0.0015
     10 C          65.0823   86.3460   15.3040 C.ar    1  UNL1        0.0001
     11 C          65.0702   84.8635   15.0760 C.ar    1  UNL1        0.0015
     12 C          64.3231   84.2903   13.9085 C.ar    1  UNL1        0.0172
     13 C          63.5882   85.1997   12.9689 C.ar    1  UNL1        0.0601
     14 N          62.7706   84.9262   11.7414 N.ar    1  UNL1       -0.3214
     15 C          62.4947   83.5762   11.1486 C.3     1  UNL1        0.1306
     16 C          60.2410   88.3689    8.5519 C.3     1  UNL1        0.0885
     17 C          60.2101   89.6929    7.8475 C.3     1  UNL1        0.0227
     18 C          59.2230   89.5963    6.7222 C.3     1  UNL1        0.0020
     19 C          58.6439   88.2126    6.7311 C.3     1  UNL1        0.0020
     20 C          59.2731   87.4541    7.8619 C.3     1  UNL1        0.0227
     21 N          63.9768   90.8267   12.2115 N.am    1  UNL1       -0.2995
     22 C          62.9661   89.8436   12.7233 C.2     1  UNL1        0.2474
     23 O          62.4682   89.9456   14.1344 O.2     1  UNL1       -0.2701
     24 H          64.3036   90.7597   11.2852 H       1  UNL1        0.1498
     25 C          64.4895   91.9120   13.1110 C.3     1  UNL1        0.1056
     26 N          67.1039   92.2537   12.6714 N.3     1  UNL1       -0.2724
     27 C          68.3449   92.1282   13.5046 C.3     1  UNL1        0.0721
     28 C          67.9354   91.7121   14.8863 C.3     1  UNL1        0.0188
     29 C          66.4413   91.5805   14.9071 C.3     1  UNL1        0.0191
     30 C          65.9274   91.9152   13.5381 C.3     1  UNL1        0.0772
     31 C          68.0524   92.0940   10.2579 C.3     1  UNL1        0.0188
     32 C          67.0490   92.6484   11.2253 C.3     1  UNL1        0.0721
@<TRIPOS>BOND
     1    31    32    1
     2    32    26    1
     3    26    27    1
     4    27    28    1
     5    28    29    1
     6    29    30    1
     7    30    25    1
     8    25    21    1
     9    21    22   am
    10    22    23    2
    11    22     1    1
    12     1     2   ar
    13     2     3   ar
    14     3    16    1
    15    16    17    1
    16    17    18    1
    17    18    19    1
    18    19    20    1
    19     3     4   ar
    20     4     5    2
    21     4     6   ar
    22     6     7   ar
    23     7     8   ar
    24     8     9   ar
    25     9    10   ar
    26    10    11   ar
    27    11    12   ar
    28    12    13   ar
    29    13    14   ar
    30    14    15    1
    31    30    26    1
    32     7     1   ar
    33    13     8   ar
    34    20    16    1
    35    14     6   ar
    36    21    24    1
