@<TRIPOS>MOLECULE
*****
 44 46 0 0 0
SMALL
GASTEIGER

@<TRIPOS>ATOM
      1 C          61.8763   86.1667    9.8731 C.3     1  UNL1        0.0920
      2 C          60.7551   86.0308    8.8858 C.3     1  UNL1        0.2582
      3 S          59.8003   87.1680    8.6741 S.O     1  UNL1        0.0319
      4 O          58.6792   87.0322    7.6869 O.co2   1  UNL1       -0.6812
      5 C          59.9666   88.4413    9.4496 C.3     1  UNL1        0.2736
      6 C          61.0878   88.5771   10.4368 C.3     1  UNL1        0.1416
      7 C          62.0426   87.4398   10.6485 C.3     1  UNL1        0.1353
      8 O          63.1638   87.5758   11.6358 O.3     1  UNL1       -0.3827
      9 H          63.1279   88.4536   12.0470 H       1  UNL1        0.2104
     10 N          61.2541   89.8504   11.2123 N.3     1  UNL1       -0.2887
     11 H          61.6662   89.5966   12.1101 H       1  UNL1        0.1237
     12 C          62.0869   90.9656   10.6533 C.3     1  UNL1        0.0958
     13 C          63.3793   91.3412   11.3156 C.ar    1  UNL1       -0.0067
     14 C          63.6388   90.9374   12.7367 C.ar    1  UNL1       -0.0029
     15 C          64.9312   91.3130   13.3991 C.ar    1  UNL1       -0.0006
     16 C          65.9640   92.0925   12.6403 C.ar    1  UNL1       -0.0042
     17 C          65.7045   92.4964   11.2192 C.ar    1  UNL1       -0.0207
     18 C          64.4120   92.1207   10.5569 C.ar    1  UNL1       -0.0071
     19 C          66.7372   93.2759   10.4605 C.3     1  UNL1        0.0460
     20 C          65.8619   94.4925   10.5189 C.3     1  UNL1        0.0069
     21 C          67.6126   92.0592   10.4020 C.3     1  UNL1        0.0069
     22 C          67.7700   94.0554    9.7017 C.3     1  UNL1        0.1410
     23 O          69.1981   93.5966    9.6915 O.3     1  UNL1       -0.3817
     24 H          69.5666   93.6667   10.5860 H       1  UNL1        0.2105
     25 C          62.8312   85.0294   10.0848 C.3     1  UNL1        0.0342
     26 C          62.3702   83.9037   13.8624 C.ar    1  UNL1        0.1535
     27 C          62.5004   84.7762   12.6493 C.ar    1  UNL1        0.0341
     28 C          62.7011   84.1568   11.2980 C.ar    1  UNL1       -0.0166
     29 C          62.7716   82.6649   11.1598 C.ar    1  UNL1        0.0268
     30 C          62.6415   81.7924   12.3730 C.ar    1  UNL1        0.1556
     31 F          62.7121   80.3004   12.2349 F       1  UNL1       -0.2028
     32 C          62.4408   82.4118   13.7243 C.ar    1  UNL1        0.1037
     33 N          62.3107   81.5392   14.9375 N.pl3   1  UNL1       -0.3529
     34 H          62.3570   80.5600   14.8468 H       1  UNL1        0.1425
     35 H          62.1790   81.9458   15.8244 H       1  UNL1        0.1425
     36 O          62.1696   84.5232   15.2138 O.3     1  UNL1       -0.4665
     37 C          63.2791   85.3043   15.8530 C.3     1  UNL1        0.2891
     38 C          64.6460   85.3087   15.2351 C.3     1  UNL1        0.4366
     39 F          66.0128   85.3131   14.6172 F       1  UNL1       -0.1663
     40 F          64.4559   86.7389   14.8247 F       1  UNL1       -0.1663
     41 F          64.8361   83.8786   15.6455 F       1  UNL1       -0.1663
     42 C          63.0219   86.0810   17.1102 C.3     1  UNL1        0.1945
     43 C          63.0699   88.6690   16.8862 C.3     1  UNL1        0.1743
     44 O          62.2976   87.3931   17.0462 O.3     1  UNL1       -0.3469
@<TRIPOS>UNITY_ATOM_ATTR
3 1
charge 1
4 1
charge -1
@<TRIPOS>BOND
     1    43    44    1
     2    44    42    1
     3    37    42    1
     4    37    36    1
     5    36    26    1
     6    26    27   ar
     7    27    28   ar
     8    28    25    1
     9     1    25    1
    10     1     2    1
    11     2     3    1
    12     3     4    2
    13     3     5    1
    14     5     6    1
    15     6    10    1
    16    10    12    1
    17    12    13    1
    18    13    14   ar
    19    14    15   ar
    20    15    16   ar
    21    16    17   ar
    22    17    19    1
    23    19    20    1
    24    19    21    1
    25    19    22    1
    26    22    23    1
    27    17    18   ar
    28     6     7    1
    29     7     8    1
    30    28    29   ar
    31    29    30   ar
    32    30    31    1
    33    30    32   ar
    34    32    33    1
    35    37    38    1
    36    38    39    1
    37    38    40    1
    38    38    41    1
    39    32    26   ar
    40     7     1    1
    41    18    13   ar
    42    10    11    1
    43    23    24    1
    44     8     9    1
    45    33    34    1
    46    33    35    1
@<TRIPOS>MOLECULE
*****
 44 46 0 0 0
SMALL
GASTEIGER

@<TRIPOS>ATOM
      1 C          61.8337   86.2392    9.5235 C.3     1  UNL1        0.0920
      2 C          60.6937   85.9010    8.6091 C.3     1  UNL1        0.2582
      3 S          59.6483   86.9317    8.3010 S.O     1  UNL1        0.0319
      4 O          58.5083   86.5936    7.3867 O.co2   1  UNL1       -0.6812
      5 C          59.7430   88.3005    8.9073 C.3     1  UNL1        0.2736
      6 C          60.8830   88.6385    9.8217 C.3     1  UNL1        0.1416
      7 C          61.9283   87.6079   10.1298 C.3     1  UNL1        0.1353
      8 O          63.0684   87.9460   11.0442 O.3     1  UNL1       -0.3827
      9 H          62.9794   88.8635   11.3462 H       1  UNL1        0.2104
     10 N          60.9776   90.0073   10.4280 N.3     1  UNL1       -0.2887
     11 H          60.0222   90.3177   10.6049 H       1  UNL1        0.1237
     12 C          61.7424   90.2120   11.7020 C.3     1  UNL1        0.0958
     13 C          63.0328   90.9766   11.6877 C.ar    1  UNL1       -0.0067
     14 C          63.5468   91.5562   10.4032 C.ar    1  UNL1       -0.0029
     15 C          64.8372   92.3208   10.3888 C.ar    1  UNL1       -0.0006
     16 C          65.6137   92.5057   11.6589 C.ar    1  UNL1       -0.0042
     17 C          65.0996   91.9261   12.9434 C.ar    1  UNL1       -0.0207
     18 C          63.8091   91.1615   12.9577 C.ar    1  UNL1       -0.0071
     19 C          65.8759   92.1110   14.2134 C.3     1  UNL1        0.0460
     20 C          65.3224   90.8201   14.7397 C.3     1  UNL1        0.0069
     21 C          66.4295   93.4019   13.6871 C.3     1  UNL1        0.0069
     22 C          66.6523   92.2959   15.4834 C.3     1  UNL1        0.1410
     23 O          65.9738   92.8428   16.7043 O.3     1  UNL1       -0.3817
     24 H          65.7071   93.7612   16.5420 H       1  UNL1        0.2105
     25 C          62.8791   85.2085    9.8316 C.3     1  UNL1        0.0342
     26 C          62.4123   84.1591   13.6304 C.ar    1  UNL1        0.1535
     27 C          62.5347   85.0066   12.3989 C.ar    1  UNL1        0.0341
     28 C          62.7567   84.3610   11.0632 C.ar    1  UNL1       -0.0166
     29 C          62.8563   82.8679   10.9592 C.ar    1  UNL1        0.0268
     30 C          62.7339   82.0205   12.1907 C.ar    1  UNL1        0.1556
     31 F          62.8336   80.5274   12.0867 F       1  UNL1       -0.2028
     32 C          62.5119   82.6661   13.5264 C.ar    1  UNL1        0.1037
     33 N          62.3895   81.8186   14.7580 N.pl3   1  UNL1       -0.3529
     34 H          62.4549   80.8386   14.6897 H       1  UNL1        0.1425
     35 H          62.2438   82.2423   15.6346 H       1  UNL1        0.1425
     36 O          62.1902   84.8047   14.9661 O.3     1  UNL1       -0.4665
     37 C          63.3464   85.4024   15.7117 C.3     1  UNL1        0.2891
     38 C          64.7349   85.2938   15.1545 C.3     1  UNL1        0.4366
     39 F          66.1233   85.1852   14.5974 F       1  UNL1       -0.1663
     40 F          64.7992   83.8610   15.5939 F       1  UNL1       -0.1663
     41 F          64.6706   86.7265   14.7151 F       1  UNL1       -0.1663
     42 C          63.1142   86.1087   17.0144 C.3     1  UNL1        0.1945
     43 C          63.0953   88.7042   16.9000 C.3     1  UNL1        0.1743
     44 O          62.3594   87.4048   17.0408 O.3     1  UNL1       -0.3469
@<TRIPOS>UNITY_ATOM_ATTR
3 1
charge 1
4 1
charge -1
@<TRIPOS>BOND
     1    43    44    1
     2    44    42    1
     3    37    42    1
     4    37    36    1
     5    36    26    1
     6    26    27   ar
     7    27    28   ar
     8    28    25    1
     9     1    25    1
    10     1     2    1
    11     2     3    1
    12     3     4    2
    13     3     5    1
    14     5     6    1
    15     6    10    1
    16    10    12    1
    17    12    13    1
    18    13    14   ar
    19    14    15   ar
    20    15    16   ar
    21    16    17   ar
    22    17    19    1
    23    19    20    1
    24    19    21    1
    25    19    22    1
    26    22    23    1
    27    17    18   ar
    28     6     7    1
    29     7     8    1
    30    28    29   ar
    31    29    30   ar
    32    30    31    1
    33    30    32   ar
    34    32    33    1
    35    37    38    1
    36    38    39    1
    37    38    40    1
    38    38    41    1
    39    32    26   ar
    40     7     1    1
    41    18    13   ar
    42    10    11    1
    43    23    24    1
    44     8     9    1
    45    33    34    1
    46    33    35    1
@<TRIPOS>MOLECULE
*****
 44 46 0 0 0
SMALL
GASTEIGER

@<TRIPOS>ATOM
      1 C          61.4142   89.4349   10.6267 C.3     1  UNL1        0.0920
      2 C          60.4021   89.7062    9.5533 C.3     1  UNL1        0.2582
      3 S          60.1195   88.6670    8.5092 S.O     1  UNL1        0.0319
      4 O          59.1075   88.9381    7.4358 O.co2   1  UNL1       -0.6812
      5 C          60.8489   87.3565    8.5385 C.3     1  UNL1        0.2736
      6 C          61.8610   87.0854    9.6119 C.3     1  UNL1        0.1416
      7 C          62.1436   88.1246   10.6560 C.3     1  UNL1        0.1353
      8 O          63.1557   87.8533   11.7295 O.3     1  UNL1       -0.3827
      9 H          63.5311   86.9678   11.6036 H       1  UNL1        0.2104
     10 N          62.5904   85.7749    9.6412 N.3     1  UNL1       -0.2887
     11 H          63.5279   85.9676    9.9938 H       1  UNL1        0.1237
     12 C          62.0496   84.6335   10.4504 C.3     1  UNL1        0.0958
     13 C          62.7956   84.1513   11.6590 C.ar    1  UNL1       -0.0067
     14 C          63.6121   82.8952   11.5847 C.ar    1  UNL1       -0.0029
     15 C          64.3581   82.4129   12.7934 C.ar    1  UNL1       -0.0006
     16 C          64.2875   83.1868   14.0765 C.ar    1  UNL1       -0.0042
     17 C          63.4710   84.4429   14.1508 C.ar    1  UNL1       -0.0207
     18 C          62.7250   84.9251   12.9420 C.ar    1  UNL1       -0.0071
     19 C          63.4005   85.2167   15.4338 C.3     1  UNL1        0.0460
     20 C          62.2963   84.3217   15.9129 C.3     1  UNL1        0.0069
     21 C          64.5047   86.1118   14.9547 C.3     1  UNL1        0.0069
     22 C          63.3299   85.9906   16.7168 C.3     1  UNL1        0.1410
     23 O          62.0910   85.9326   17.5605 O.3     1  UNL1       -0.3817
     24 H          61.3544   86.3442   17.0820 H       1  UNL1        0.2105
     25 C          61.6969   90.4741   11.6709 C.3     1  UNL1        0.0342
     26 C          65.2169   91.3218   13.2960 C.ar    1  UNL1        0.1535
     27 C          63.8256   90.7873   13.1271 C.ar    1  UNL1        0.0341
     28 C          63.0883   91.0086   11.8397 C.ar    1  UNL1       -0.0166
     29 C          63.7423   91.7643   10.7212 C.ar    1  UNL1        0.0268
     30 C          65.1336   92.2987   10.8901 C.ar    1  UNL1        0.1556
     31 F          65.7877   93.0544    9.7715 F       1  UNL1       -0.2028
     32 C          65.8709   92.0774   12.1775 C.ar    1  UNL1        0.1037
     33 N          67.2623   92.6119   12.3464 N.pl3   1  UNL1       -0.3529
     34 H          67.6916   93.1079   11.6122 H       1  UNL1        0.1425
     35 H          67.7462   92.4667   13.1913 H       1  UNL1        0.1425
     36 O          65.9542   91.1005   14.5834 O.3     1  UNL1       -0.4665
     37 C          65.9799   92.1770   15.6276 C.3     1  UNL1        0.2891
     38 C          67.1551   93.1047   15.7197 C.3     1  UNL1        0.4366
     39 F          68.3302   94.0323   15.8118 F       1  UNL1       -0.1663
     40 F          66.4742   94.0601   14.7851 F       1  UNL1       -0.1663
     41 F          67.8359   92.1493   16.6543 F       1  UNL1       -0.1663
     42 C          64.8304   92.3260   16.5797 C.3     1  UNL1        0.1945
     43 C          63.4076   90.1538   16.6654 C.3     1  UNL1        0.1743
     44 O          63.5406   91.6067   16.3167 O.3     1  UNL1       -0.3469
@<TRIPOS>UNITY_ATOM_ATTR
3 1
charge 1
4 1
charge -1
@<TRIPOS>BOND
     1    43    44    1
     2    44    42    1
     3    37    42    1
     4    37    36    1
     5    36    26    1
     6    26    27   ar
     7    27    28   ar
     8    28    25    1
     9     1    25    1
    10     1     2    1
    11     2     3    1
    12     3     4    2
    13     3     5    1
    14     5     6    1
    15     6    10    1
    16    10    12    1
    17    12    13    1
    18    13    14   ar
    19    14    15   ar
    20    15    16   ar
    21    16    17   ar
    22    17    19    1
    23    19    20    1
    24    19    21    1
    25    19    22    1
    26    22    23    1
    27    17    18   ar
    28     6     7    1
    29     7     8    1
    30    28    29   ar
    31    29    30   ar
    32    30    31    1
    33    30    32   ar
    34    32    33    1
    35    37    38    1
    36    38    39    1
    37    38    40    1
    38    38    41    1
    39    32    26   ar
    40     7     1    1
    41    18    13   ar
    42    10    11    1
    43    23    24    1
    44     8     9    1
    45    33    34    1
    46    33    35    1
@<TRIPOS>MOLECULE
*****
 44 46 0 0 0
SMALL
GASTEIGER

@<TRIPOS>ATOM
      1 C          61.8660   90.0616   10.5309 C.3     1  UNL1        0.0920
      2 C          60.6956   90.5760   11.3155 C.3     1  UNL1        0.2582
      3 S          59.5786   89.6481   11.6914 S.O     1  UNL1        0.0319
      4 O          58.4082   90.1625   12.4760 O.co2   1  UNL1       -0.6812
      5 C          59.6320   88.2058   11.2826 C.3     1  UNL1        0.2736
      6 C          60.8024   87.6915   10.4981 C.3     1  UNL1        0.1416
      7 C          61.9194   88.6194   10.1222 C.3     1  UNL1        0.1353
      8 O          63.0898   88.1050    9.3376 O.3     1  UNL1       -0.3827
      9 H          62.9677   87.1598    9.1569 H       1  UNL1        0.2104
     10 N          60.8558   86.2492   10.0893 N.3     1  UNL1       -0.2887
     11 H          60.2872   86.1606    9.2471 H       1  UNL1        0.1237
     12 C          62.1759   85.6028    9.7905 C.3     1  UNL1        0.0958
     13 C          62.8822   84.8138   10.8528 C.ar    1  UNL1       -0.0067
     14 C          63.6722   83.5941   10.4808 C.ar    1  UNL1       -0.0029
     15 C          64.3785   82.8051   11.5431 C.ar    1  UNL1       -0.0006
     16 C          64.2949   83.2358   12.9776 C.ar    1  UNL1       -0.0042
     17 C          63.5050   84.4555   13.3496 C.ar    1  UNL1       -0.0207
     18 C          62.7986   85.2445   12.2872 C.ar    1  UNL1       -0.0071
     19 C          63.4213   84.8862   14.7840 C.3     1  UNL1        0.0460
     20 C          62.5243   83.7215   15.0814 C.3     1  UNL1        0.0069
     21 C          64.3184   86.0510   14.4865 C.3     1  UNL1        0.0069
     22 C          63.3377   85.3170   16.2183 C.3     1  UNL1        0.1410
     23 O          62.0076   85.6554   16.8235 O.3     1  UNL1       -0.3817
     24 H          61.6497   86.4485   16.3948 H       1  UNL1        0.2105
     25 C          62.9831   90.9895   10.1550 C.3     1  UNL1        0.0342
     26 C          66.1268   92.7349   11.8346 C.ar    1  UNL1        0.1535
     27 C          65.1080   92.3336   10.8094 C.ar    1  UNL1        0.0341
     28 C          64.0019   91.3907   11.1803 C.ar    1  UNL1       -0.0166
     29 C          63.9147   90.8490   12.5763 C.ar    1  UNL1        0.0268
     30 C          64.9335   91.2503   13.6014 C.ar    1  UNL1        0.1556
     31 F          64.8462   90.7086   14.9976 F       1  UNL1       -0.2028
     32 C          66.0395   92.1932   13.2306 C.ar    1  UNL1        0.1037
     33 N          67.0584   92.5944   14.2558 N.pl3   1  UNL1       -0.3529
     34 H          67.0011   92.2389   15.1721 H       1  UNL1        0.1425
     35 H          67.7843   93.2133   14.0124 H       1  UNL1        0.1425
     36 O          67.2328   93.6778   11.4637 O.3     1  UNL1       -0.4665
     37 C          67.4625   94.0357   10.0253 C.3     1  UNL1        0.2891
     38 C          68.2115   93.0948    9.1287 C.3     1  UNL1        0.4366
     39 F          68.9605   92.1541    8.2320 F       1  UNL1       -0.1663
     40 F          68.6092   92.2755   10.3205 F       1  UNL1       -0.1663
     41 F          67.8139   93.9142    7.9368 F       1  UNL1       -0.1663
     42 C          66.9433   95.3344    9.4834 C.3     1  UNL1        0.1945
     43 C          65.8163   96.8496   11.2679 C.3     1  UNL1        0.1743
     44 O          66.9606   96.5653   10.3407 O.3     1  UNL1       -0.3469
@<TRIPOS>UNITY_ATOM_ATTR
3 1
charge 1
4 1
charge -1
@<TRIPOS>BOND
     1    43    44    1
     2    44    42    1
     3    37    42    1
     4    37    36    1
     5    36    26    1
     6    26    27   ar
     7    27    28   ar
     8    28    25    1
     9     1    25    1
    10     1     2    1
    11     2     3    1
    12     3     4    2
    13     3     5    1
    14     5     6    1
    15     6    10    1
    16    10    12    1
    17    12    13    1
    18    13    14   ar
    19    14    15   ar
    20    15    16   ar
    21    16    17   ar
    22    17    19    1
    23    19    20    1
    24    19    21    1
    25    19    22    1
    26    22    23    1
    27    17    18   ar
    28     6     7    1
    29     7     8    1
    30    28    29   ar
    31    29    30   ar
    32    30    31    1
    33    30    32   ar
    34    32    33    1
    35    37    38    1
    36    38    39    1
    37    38    40    1
    38    38    41    1
    39    32    26   ar
    40     7     1    1
    41    18    13   ar
    42    10    11    1
    43    23    24    1
    44     8     9    1
    45    33    34    1
    46    33    35    1
@<TRIPOS>MOLECULE
*****
 44 46 0 0 0
SMALL
GASTEIGER

@<TRIPOS>ATOM
      1 C          62.2162   90.7499   10.8986 C.3     1  UNL1        0.0920
      2 C          63.2776   91.5133   10.1633 C.3     1  UNL1        0.2582
      3 S          64.5114   91.9673   10.8856 S.O     1  UNL1        0.0319
      4 O          65.5728   92.7307   10.1504 O.co2   1  UNL1       -0.6812
      5 C          64.6838   91.6577   12.3432 C.3     1  UNL1        0.2736
      6 C          63.6224   90.8943   13.0785 C.3     1  UNL1        0.1416
      7 C          62.3886   90.4403   12.3561 C.3     1  UNL1        0.1353
      8 O          61.3272   89.6769   13.0914 O.3     1  UNL1       -0.3827
      9 H          61.5934   89.5631   14.0172 H       1  UNL1        0.2104
     10 N          63.7948   90.5847   14.5361 N.3     1  UNL1       -0.2887
     11 H          62.8619   90.4206   14.9146 H       1  UNL1        0.1237
     12 C          64.6448   89.4241   14.9609 C.3     1  UNL1        0.0958
     13 C          64.0156   88.2400   15.6332 C.ar    1  UNL1       -0.0067
     14 C          63.2167   88.4274   16.8889 C.ar    1  UNL1       -0.0029
     15 C          62.5875   87.2434   17.5612 C.ar    1  UNL1       -0.0006
     16 C          62.7571   85.8718   16.9779 C.ar    1  UNL1       -0.0042
     17 C          63.5559   85.6844   15.7222 C.ar    1  UNL1       -0.0207
     18 C          64.1852   86.8686   15.0499 C.ar    1  UNL1       -0.0071
     19 C          63.7256   84.3130   15.1388 C.3     1  UNL1        0.0460
     20 C          65.0684   84.7083   14.6000 C.3     1  UNL1        0.0069
     21 C          62.3827   83.9177   15.6777 C.3     1  UNL1        0.0069
     22 C          63.8952   82.9416   14.5555 C.3     1  UNL1        0.1410
     23 O          62.9210   81.8542   14.9000 O.3     1  UNL1       -0.3817
     24 H          62.9960   81.6399   15.8431 H       1  UNL1        0.2105
     25 C          60.9824   90.2960   10.1763 C.3     1  UNL1        0.0342
     26 C          62.1088   86.6999    8.9315 C.ar    1  UNL1        0.1535
     27 C          62.1205   88.0235    9.6371 C.ar    1  UNL1        0.0341
     28 C          60.9707   88.9723    9.4707 C.ar    1  UNL1       -0.0166
     29 C          59.8091   88.5975    8.5987 C.ar    1  UNL1        0.0268
     30 C          59.7974   87.2739    7.8932 C.ar    1  UNL1        0.1556
     31 F          58.6359   86.8990    7.0212 F       1  UNL1       -0.2028
     32 C          60.9473   86.3251    8.0596 C.ar    1  UNL1        0.1037
     33 N          60.9355   85.0014    7.3540 N.pl3   1  UNL1       -0.3529
     34 H          60.1731   84.7554    6.7817 H       1  UNL1        0.1425
     35 H          61.6902   84.3786    7.4632 H       1  UNL1        0.1425
     36 O          63.2586   85.7510    9.0979 O.3     1  UNL1       -0.4665
     37 C          63.2320   84.7249   10.1916 C.3     1  UNL1        0.2891
     38 C          62.4795   84.9998   11.4599 C.3     1  UNL1        0.4366
     39 F          61.7272   85.2747   12.7281 F       1  UNL1       -0.1663
     40 F          61.3956   84.0607   11.0204 F       1  UNL1       -0.1663
     41 F          63.5635   85.9389   11.8993 F       1  UNL1       -0.1663
     42 C          63.9577   83.4238   10.0172 C.3     1  UNL1        0.1945
     43 C          63.1716   81.2855   11.2661 C.3     1  UNL1        0.1743
     44 O          64.0821   82.4738   11.1714 O.3     1  UNL1       -0.3469
@<TRIPOS>UNITY_ATOM_ATTR
3 1
charge 1
4 1
charge -1
@<TRIPOS>BOND
     1    43    44    1
     2    44    42    1
     3    37    42    1
     4    37    36    1
     5    36    26    1
     6    26    27   ar
     7    27    28   ar
     8    28    25    1
     9     1    25    1
    10     1     2    1
    11     2     3    1
    12     3     4    2
    13     3     5    1
    14     5     6    1
    15     6    10    1
    16    10    12    1
    17    12    13    1
    18    13    14   ar
    19    14    15   ar
    20    15    16   ar
    21    16    17   ar
    22    17    19    1
    23    19    20    1
    24    19    21    1
    25    19    22    1
    26    22    23    1
    27    17    18   ar
    28     6     7    1
    29     7     8    1
    30    28    29   ar
    31    29    30   ar
    32    30    31    1
    33    30    32   ar
    34    32    33    1
    35    37    38    1
    36    38    39    1
    37    38    40    1
    38    38    41    1
    39    32    26   ar
    40     7     1    1
    41    18    13   ar
    42    10    11    1
    43    23    24    1
    44     8     9    1
    45    33    34    1
    46    33    35    1
@<TRIPOS>MOLECULE
*****
 44 46 0 0 0
SMALL
GASTEIGER

@<TRIPOS>ATOM
      1 C          61.5392   89.5989   10.7207 C.3     1  UNL1        0.0920
      2 C          60.6282   89.6993    9.5332 C.3     1  UNL1        0.2582
      3 S          60.3211   88.4780    8.7182 S.O     1  UNL1        0.0319
      4 O          59.4101   88.5783    7.5308 O.co2   1  UNL1       -0.6812
      5 C          60.9250   87.1564    9.0907 C.3     1  UNL1        0.2736
      6 C          61.8360   87.0561   10.2782 C.3     1  UNL1        0.1416
      7 C          62.1431   88.2774   11.0932 C.3     1  UNL1        0.1353
      8 O          63.0541   88.1770   12.2807 O.3     1  UNL1       -0.3827
      9 H          63.3549   87.2603   12.3808 H       1  UNL1        0.2104
     10 N          62.4399   85.7345   10.6507 N.3     1  UNL1       -0.2887
     11 H          63.2256   85.5811   10.0185 H       1  UNL1        0.1237
     12 C          62.9535   85.5101   12.0420 C.3     1  UNL1        0.0958
     13 C          62.7883   84.1700   12.6954 C.ar    1  UNL1       -0.0067
     14 C          62.5565   84.0804   14.1747 C.ar    1  UNL1       -0.0029
     15 C          62.3913   82.7403   14.8281 C.ar    1  UNL1       -0.0006
     16 C          62.4580   81.4899   14.0022 C.ar    1  UNL1       -0.0042
     17 C          62.6899   81.5795   12.5230 C.ar    1  UNL1       -0.0207
     18 C          62.8550   82.9197   11.8696 C.ar    1  UNL1       -0.0071
     19 C          62.7566   80.3292   11.6971 C.3     1  UNL1        0.0460
     20 C          62.3405   79.5196   12.8893 C.3     1  UNL1        0.0069
     21 C          63.1727   81.1388   10.5049 C.3     1  UNL1        0.0069
     22 C          62.8233   79.0788   10.8712 C.3     1  UNL1        0.1410
     23 O          62.7807   79.1655    9.3744 O.3     1  UNL1       -0.3817
     24 H          61.9139   79.4989    9.0943 H       1  UNL1        0.2105
     25 C          61.8463   90.8202   11.5357 C.3     1  UNL1        0.0342
     26 C          65.3669   91.4065   13.2711 C.ar    1  UNL1        0.1535
     27 C          63.9432   90.9836   13.0610 C.ar    1  UNL1        0.0341
     28 C          63.2700   91.2431   11.7459 C.ar    1  UNL1       -0.0166
     29 C          64.0206   91.9256   10.6409 C.ar    1  UNL1        0.0268
     30 C          65.4443   92.3485   10.8511 C.ar    1  UNL1        0.1556
     31 F          66.1949   93.0310    9.7462 F       1  UNL1       -0.2028
     32 C          66.1174   92.0889   12.1662 C.ar    1  UNL1        0.1037
     33 N          67.5412   92.5119   12.3764 N.pl3   1  UNL1       -0.3529
     34 H          68.0338   92.9598   11.6511 H       1  UNL1        0.1425
     35 H          67.9830   92.3415   13.2395 H       1  UNL1        0.1425
     36 O          66.0400   91.1469   14.5863 O.3     1  UNL1       -0.4665
     37 C          66.0698   92.2165   15.6375 C.3     1  UNL1        0.2891
     38 C          67.2344   93.1586   15.7162 C.3     1  UNL1        0.4366
     39 F          68.3989   94.1008   15.7948 F       1  UNL1       -0.1663
     40 F          67.9215   92.2295   16.6725 F       1  UNL1       -0.1663
     41 F          66.5473   94.0877   14.7599 F       1  UNL1       -0.1663
     42 C          64.9350   92.3439   16.6102 C.3     1  UNL1        0.1945
     43 C          63.4069   90.2428   16.5872 C.3     1  UNL1        0.1743
     44 O          63.6131   91.7022   16.3086 O.3     1  UNL1       -0.3469
@<TRIPOS>UNITY_ATOM_ATTR
3 1
charge 1
4 1
charge -1
@<TRIPOS>BOND
     1    43    44    1
     2    44    42    1
     3    37    42    1
     4    37    36    1
     5    36    26    1
     6    26    27   ar
     7    27    28   ar
     8    28    25    1
     9     1    25    1
    10     1     2    1
    11     2     3    1
    12     3     4    2
    13     3     5    1
    14     5     6    1
    15     6    10    1
    16    10    12    1
    17    12    13    1
    18    13    14   ar
    19    14    15   ar
    20    15    16   ar
    21    16    17   ar
    22    17    19    1
    23    19    20    1
    24    19    21    1
    25    19    22    1
    26    22    23    1
    27    17    18   ar
    28     6     7    1
    29     7     8    1
    30    28    29   ar
    31    29    30   ar
    32    30    31    1
    33    30    32   ar
    34    32    33    1
    35    37    38    1
    36    38    39    1
    37    38    40    1
    38    38    41    1
    39    32    26   ar
    40     7     1    1
    41    18    13   ar
    42    10    11    1
    43    23    24    1
    44     8     9    1
    45    33    34    1
    46    33    35    1
@<TRIPOS>MOLECULE
*****
 44 46 0 0 0
SMALL
GASTEIGER

@<TRIPOS>ATOM
      1 C          61.0107   89.3109   10.4933 C.3     1  UNL1        0.0920
      2 C          60.0751   89.5348    9.3424 C.3     1  UNL1        0.2582
      3 S          59.9726   88.5125    8.2495 S.O     1  UNL1        0.0319
      4 O          59.0370   88.7363    7.0986 O.co2   1  UNL1       -0.6812
      5 C          60.8056   87.2664    8.3075 C.3     1  UNL1        0.2736
      6 C          61.7412   87.0426    9.4584 C.3     1  UNL1        0.1416
      7 C          61.8437   88.0649   10.5513 C.3     1  UNL1        0.1353
      8 O          62.7794   87.8410   11.7022 O.3     1  UNL1       -0.3827
      9 H          63.2382   86.9943   11.5860 H       1  UNL1        0.2104
     10 N          62.5743   85.7965    9.5164 N.3     1  UNL1       -0.2887
     11 H          63.4798   86.0654    9.9012 H       1  UNL1        0.1237
     12 C          62.1009   84.6141   10.3086 C.3     1  UNL1        0.0958
     13 C          62.8729   84.1596   11.5117 C.ar    1  UNL1       -0.0067
     14 C          63.7845   82.9724   11.4133 C.ar    1  UNL1       -0.0029
     15 C          64.5565   82.5180   12.6164 C.ar    1  UNL1       -0.0006
     16 C          64.4171   83.2507   13.9178 C.ar    1  UNL1       -0.0042
     17 C          63.5055   84.4379   14.0162 C.ar    1  UNL1       -0.0207
     18 C          62.7334   84.8924   12.8130 C.ar    1  UNL1       -0.0071
     19 C          63.3660   85.1706   15.3175 C.3     1  UNL1        0.0460
     20 C          62.3291   84.1825   15.7628 C.3     1  UNL1        0.0069
     21 C          64.4030   86.1588   14.8723 C.3     1  UNL1        0.0069
     22 C          63.2266   85.9034   16.6189 C.3     1  UNL1        0.1410
     23 O          61.8704   86.0931   17.2312 O.3     1  UNL1       -0.3817
     24 H          61.3366   86.6696   16.6623 H       1  UNL1        0.2105
     25 C          61.1133   90.3332   11.5862 C.3     1  UNL1        0.0342
     26 C          64.8233   91.3534   12.5583 C.ar    1  UNL1        0.1535
     27 C          63.5497   91.2147   11.7782 C.ar    1  UNL1        0.0341
     28 C          62.3869   90.4718   12.3665 C.ar    1  UNL1       -0.0166
     29 C          62.4978   89.8674   13.7348 C.ar    1  UNL1        0.0268
     30 C          63.7714   90.0061   14.5149 C.ar    1  UNL1        0.1556
     31 F          63.8823   89.4017   15.8834 F       1  UNL1       -0.2028
     32 C          64.9342   90.7490   13.9267 C.ar    1  UNL1        0.1037
     33 N          66.2078   90.8876   14.7069 N.pl3   1  UNL1       -0.3529
     34 H          66.2806   90.4909   15.6050 H       1  UNL1        0.1425
     35 H          66.9710   91.3752   14.3209 H       1  UNL1        0.1425
     36 O          65.9861   92.0963   11.9701 O.3     1  UNL1       -0.4665
     37 C          66.1726   93.5545   12.2681 C.3     1  UNL1        0.2891
     38 C          65.9239   94.5764   11.1985 C.3     1  UNL1        0.4366
     39 F          65.6752   95.5982   10.1289 F       1  UNL1       -0.1663
     40 F          65.7553   93.4793   10.1895 F       1  UNL1       -0.1663
     41 F          66.0924   95.6734   12.2074 F       1  UNL1       -0.1663
     42 C          66.6078   93.9909   13.6356 C.3     1  UNL1        0.1945
     43 C          68.1727   93.7159   15.6912 C.3     1  UNL1        0.1743
     44 O          67.7833   93.3319   14.2945 O.3     1  UNL1       -0.3469
@<TRIPOS>UNITY_ATOM_ATTR
3 1
charge 1
4 1
charge -1
@<TRIPOS>BOND
     1    43    44    1
     2    44    42    1
     3    37    42    1
     4    37    36    1
     5    36    26    1
     6    26    27   ar
     7    27    28   ar
     8    28    25    1
     9     1    25    1
    10     1     2    1
    11     2     3    1
    12     3     4    2
    13     3     5    1
    14     5     6    1
    15     6    10    1
    16    10    12    1
    17    12    13    1
    18    13    14   ar
    19    14    15   ar
    20    15    16   ar
    21    16    17   ar
    22    17    19    1
    23    19    20    1
    24    19    21    1
    25    19    22    1
    26    22    23    1
    27    17    18   ar
    28     6     7    1
    29     7     8    1
    30    28    29   ar
    31    29    30   ar
    32    30    31    1
    33    30    32   ar
    34    32    33    1
    35    37    38    1
    36    38    39    1
    37    38    40    1
    38    38    41    1
    39    32    26   ar
    40     7     1    1
    41    18    13   ar
    42    10    11    1
    43    23    24    1
    44     8     9    1
    45    33    34    1
    46    33    35    1
@<TRIPOS>MOLECULE
*****
 44 46 0 0 0
SMALL
GASTEIGER

@<TRIPOS>ATOM
      1 C          61.5375   89.5522   10.8504 C.3     1  UNL1        0.0920
      2 C          60.5415   89.9182    9.7901 C.3     1  UNL1        0.2582
      3 S          60.2132   88.9412    8.7002 S.O     1  UNL1        0.0319
      4 O          59.2173   89.3071    7.6399 O.co2   1  UNL1       -0.6812
      5 C          60.8810   87.5983    8.6706 C.3     1  UNL1        0.2736
      6 C          61.8770   87.2325    9.7309 C.3     1  UNL1        0.1416
      7 C          62.2052   88.2094   10.8207 C.3     1  UNL1        0.1353
      8 O          63.2012   87.8435   11.8810 O.3     1  UNL1       -0.3827
      9 H          63.5354   86.9481   11.7155 H       1  UNL1        0.2104
     10 N          62.5448   85.8896    9.7013 N.3     1  UNL1       -0.2887
     11 H          63.5014   86.0292   10.0265 H       1  UNL1        0.1237
     12 C          61.9780   84.7524   10.4985 C.3     1  UNL1        0.0958
     13 C          62.7325   84.2136   11.6776 C.ar    1  UNL1       -0.0067
     14 C          63.4895   82.9241   11.5580 C.ar    1  UNL1       -0.0029
     15 C          64.2440   82.3853   12.7371 C.ar    1  UNL1       -0.0006
     16 C          64.2417   83.1360   14.0358 C.ar    1  UNL1       -0.0042
     17 C          63.4848   84.4254   14.1553 C.ar    1  UNL1       -0.0207
     18 C          62.7302   84.9643   12.9762 C.ar    1  UNL1       -0.0071
     19 C          63.4824   85.1761   15.4539 C.3     1  UNL1        0.0460
     20 C          64.6678   85.9728   14.9956 C.3     1  UNL1        0.0069
     21 C          62.2971   84.3794   15.9123 C.3     1  UNL1        0.0069
     22 C          63.4801   85.9268   16.7526 C.3     1  UNL1        0.1410
     23 O          62.3431   86.8471   17.0848 O.3     1  UNL1       -0.3817
     24 H          62.3400   87.5938   16.4657 H       1  UNL1        0.2105
     25 C          61.8657   90.5292   11.9402 C.3     1  UNL1        0.0342
     26 C          65.2315   92.4016   10.9834 C.ar    1  UNL1        0.1535
     27 C          63.8483   91.8309   10.8795 C.ar    1  UNL1        0.0341
     28 C          63.2490   91.1000   12.0442 C.ar    1  UNL1       -0.0166
     29 C          64.0330   90.9398   13.3129 C.ar    1  UNL1        0.0268
     30 C          65.4162   91.5106   13.4169 C.ar    1  UNL1        0.1556
     31 F          66.2003   91.3505   14.6857 F       1  UNL1       -0.2028
     32 C          66.0155   92.2415   12.2521 C.ar    1  UNL1        0.1037
     33 N          67.3988   92.8123   12.3561 N.pl3   1  UNL1       -0.3529
     34 H          67.9133   92.7072   13.1888 H       1  UNL1        0.1425
     35 H          67.7921   93.2920   11.5916 H       1  UNL1        0.1425
     36 O          65.8307   93.1325    9.8186 O.3     1  UNL1       -0.4665
     37 C          66.4645   94.4767   10.0223 C.3     1  UNL1        0.2891
     38 C          65.6962   95.5735   10.6982 C.3     1  UNL1        0.4366
     39 F          64.9280   96.6703   11.3739 F       1  UNL1       -0.1663
     40 F          66.6251   95.5000   11.8736 F       1  UNL1       -0.1663
     41 F          64.7673   95.6471    9.5227 F       1  UNL1       -0.1663
     42 C          67.8666   94.7240    9.5501 C.3     1  UNL1        0.1945
     43 C          68.8333   92.3795    8.9856 C.3     1  UNL1        0.1743
     44 O          68.9190   93.6723    9.7414 O.3     1  UNL1       -0.3469
@<TRIPOS>UNITY_ATOM_ATTR
3 1
charge 1
4 1
charge -1
@<TRIPOS>BOND
     1    43    44    1
     2    44    42    1
     3    37    42    1
     4    37    36    1
     5    36    26    1
     6    26    27   ar
     7    27    28   ar
     8    28    25    1
     9     1    25    1
    10     1     2    1
    11     2     3    1
    12     3     4    2
    13     3     5    1
    14     5     6    1
    15     6    10    1
    16    10    12    1
    17    12    13    1
    18    13    14   ar
    19    14    15   ar
    20    15    16   ar
    21    16    17   ar
    22    17    19    1
    23    19    20    1
    24    19    21    1
    25    19    22    1
    26    22    23    1
    27    17    18   ar
    28     6     7    1
    29     7     8    1
    30    28    29   ar
    31    29    30   ar
    32    30    31    1
    33    30    32   ar
    34    32    33    1
    35    37    38    1
    36    38    39    1
    37    38    40    1
    38    38    41    1
    39    32    26   ar
    40     7     1    1
    41    18    13   ar
    42    10    11    1
    43    23    24    1
    44     8     9    1
    45    33    34    1
    46    33    35    1
@<TRIPOS>MOLECULE
*****
 44 46 0 0 0
SMALL
GASTEIGER

@<TRIPOS>ATOM
      1 C          63.1262   90.2841   12.7910 C.3     1  UNL1        0.0920
      2 C          62.2843   90.5757   11.5841 C.3     1  UNL1        0.2582
      3 S          61.7957   89.4506   10.7208 S.O     1  UNL1        0.0319
      4 O          60.9539   89.7422    9.5141 O.co2   1  UNL1       -0.6812
      5 C          62.1489   88.0338   11.0644 C.3     1  UNL1        0.2736
      6 C          62.9907   87.7422   12.2711 C.3     1  UNL1        0.1416
      7 C          63.4793   88.8673   13.1344 C.3     1  UNL1        0.1353
      8 O          64.3212   88.5756   14.3412 O.3     1  UNL1       -0.3827
      9 H          64.4549   87.6180   14.4184 H       1  UNL1        0.2104
     10 N          63.3439   86.3253   12.6147 N.3     1  UNL1       -0.2887
     11 H          63.2000   86.2212   13.6191 H       1  UNL1        0.1237
     12 C          62.6195   85.1904   11.9535 C.3     1  UNL1        0.0958
     13 C          62.6241   83.8292   12.5836 C.ar    1  UNL1       -0.0067
     14 C          62.5645   83.6934   14.0762 C.ar    1  UNL1       -0.0029
     15 C          62.5690   82.3322   14.7063 C.ar    1  UNL1       -0.0006
     16 C          62.6332   81.1067   13.8437 C.ar    1  UNL1       -0.0042
     17 C          62.6929   81.2424   12.3510 C.ar    1  UNL1       -0.0207
     18 C          62.6883   82.6037   11.7210 C.ar    1  UNL1       -0.0071
     19 C          62.7570   80.0170   11.4884 C.3     1  UNL1        0.0460
     20 C          62.3825   79.1679   12.6668 C.3     1  UNL1        0.0069
     21 C          63.1316   80.8661   10.3100 C.3     1  UNL1        0.0069
     22 C          62.8212   78.7915   10.6258 C.3     1  UNL1        0.1410
     23 O          63.1890   78.9128    9.1767 O.3     1  UNL1       -0.3817
     24 H          62.4973   79.4054    8.7077 H       1  UNL1        0.2105
     25 C          63.6148   91.4092   13.6542 C.3     1  UNL1        0.0342
     26 C          67.3996   92.1359   12.7071 C.ar    1  UNL1        0.1535
     27 C          65.9279   91.8810   12.5693 C.ar    1  UNL1        0.0341
     28 C          65.0866   91.6642   13.7921 C.ar    1  UNL1       -0.0166
     29 C          65.7169   91.7023   15.1526 C.ar    1  UNL1        0.0268
     30 C          67.1887   91.9573   15.2904 C.ar    1  UNL1        0.1556
     31 F          67.8191   91.9954   16.6510 F       1  UNL1       -0.2028
     32 C          68.0300   92.1741   14.0676 C.ar    1  UNL1        0.1037
     33 N          69.5018   92.4290   14.2055 N.pl3   1  UNL1       -0.3529
     34 H          69.9155   92.4540   15.0985 H       1  UNL1        0.1425
     35 H          70.0540   92.5713   13.4029 H       1  UNL1        0.1425
     36 O          68.2410   92.3527   11.4843 O.3     1  UNL1       -0.4665
     37 C          67.8120   93.3457   10.4452 C.3     1  UNL1        0.2891
     38 C          68.1906   93.1388    9.0085 C.3     1  UNL1        0.4366
     39 F          68.5692   92.9320    7.5719 F       1  UNL1       -0.1663
     40 F          68.1087   91.6535    9.2008 F       1  UNL1       -0.1663
     41 F          68.2725   94.6242    8.8162 F       1  UNL1       -0.1663
     42 C          67.0044   94.5457   10.8426 C.3     1  UNL1        0.1945
     43 C          65.1845   96.2054   10.0160 C.3     1  UNL1        0.1743
     44 O          65.6723   94.7991   10.2012 O.3     1  UNL1       -0.3469
@<TRIPOS>UNITY_ATOM_ATTR
3 1
charge 1
4 1
charge -1
@<TRIPOS>BOND
     1    43    44    1
     2    44    42    1
     3    37    42    1
     4    37    36    1
     5    36    26    1
     6    26    27   ar
     7    27    28   ar
     8    28    25    1
     9     1    25    1
    10     1     2    1
    11     2     3    1
    12     3     4    2
    13     3     5    1
    14     5     6    1
    15     6    10    1
    16    10    12    1
    17    12    13    1
    18    13    14   ar
    19    14    15   ar
    20    15    16   ar
    21    16    17   ar
    22    17    19    1
    23    19    20    1
    24    19    21    1
    25    19    22    1
    26    22    23    1
    27    17    18   ar
    28     6     7    1
    29     7     8    1
    30    28    29   ar
    31    29    30   ar
    32    30    31    1
    33    30    32   ar
    34    32    33    1
    35    37    38    1
    36    38    39    1
    37    38    40    1
    38    38    41    1
    39    32    26   ar
    40     7     1    1
    41    18    13   ar
    42    10    11    1
    43    23    24    1
    44     8     9    1
    45    33    34    1
    46    33    35    1
