@<TRIPOS>MOLECULE
*****
 24 27 0 0 0
SMALL
GASTEIGER

@<TRIPOS>ATOM
      1 N          62.8453   85.7268   12.4418 N.ar    1  UNL1       -0.2077
      2 C          63.6729   86.6803   13.2516 C.ar    1  UNL1        0.0999
      3 C          63.4748   88.0575   12.6910 C.ar    1  UNL1        0.0220
      4 C          62.5249   87.9551   11.5348 C.ar    1  UNL1        0.0187
      5 C          61.9639   88.9874   10.6022 C.ar    1  UNL1       -0.0030
      6 C          61.0137   88.5792    9.5156 C.ar    1  UNL1       -0.0246
      7 C          60.6246   87.1389    9.3616 C.ar    1  UNL1       -0.0232
      8 C          61.1856   86.1065   10.2941 C.ar    1  UNL1        0.0144
      9 C          62.1357   86.5146   11.3807 C.ar    1  UNL1        0.0822
     10 C          59.6999   86.5225    8.3541 C.3     1  UNL1        0.0431
     11 C          58.9359   87.1944    7.2518 C.3     1  UNL1        0.0733
     12 N          58.9080   88.6485    6.8849 N.3     1  UNL1       -0.2969
     13 C          59.6371   89.7899    7.5295 C.3     1  UNL1        0.0733
     14 C          60.5742   89.7591    8.7003 C.3     1  UNL1        0.0431
     15 H          57.9233   88.9081    6.9443 H       1  UNL1        0.1233
     16 O          63.3726   84.0094   11.3139 O.2     1  UNL1       -0.1476
     17 S          62.7448   84.2455   12.6555 S.O2    1  UNL1        0.0860
     18 O          62.1169   84.4817   13.9972 O.2     1  UNL1       -0.1476
     19 C          62.6442   82.7643   12.8692 C.ar    1  UNL1        0.1277
     20 C          62.1684   82.2272   14.1865 C.ar    1  UNL1        0.0204
     21 C          62.0678   80.7459   14.4003 C.ar    1  UNL1        0.0014
     22 C          62.4431   79.8017   13.2968 C.ar    1  UNL1        0.0001
     23 C          62.9189   80.3388   11.9795 C.ar    1  UNL1        0.0014
     24 C          63.0194   81.8200   11.7658 C.ar    1  UNL1        0.0204
@<TRIPOS>BOND
     1    16    17    2
     2    17    18    2
     3    17    19    1
     4    19    20   ar
     5    20    21   ar
     6    21    22   ar
     7    22    23   ar
     8    23    24   ar
     9    17     1    1
    10     1     2   ar
    11     2     3   ar
    12     3     4   ar
    13     4     5   ar
    14     5     6   ar
    15     6     7   ar
    16     7     8   ar
    17     8     9   ar
    18     7    10    1
    19    10    11    1
    20    11    12    1
    21    12    13    1
    22    13    14    1
    23    24    19   ar
    24     9     1   ar
    25     9     4   ar
    26    14     6    1
    27    12    15    1
@<TRIPOS>MOLECULE
*****
 24 27 0 0 0
SMALL
GASTEIGER

@<TRIPOS>ATOM
      1 N          63.8708   84.8094   13.7760 N.ar    1  UNL1       -0.2077
      2 C          64.6538   85.1344   15.0134 C.ar    1  UNL1        0.0999
      3 C          64.7641   86.6271   15.1134 C.ar    1  UNL1        0.0220
      4 C          64.0492   87.2245   13.9378 C.ar    1  UNL1        0.0187
      5 C          63.8297   88.6463   13.5133 C.ar    1  UNL1       -0.0030
      6 C          63.0580   88.9447   12.2620 C.ar    1  UNL1       -0.0246
      7 C          62.5060   87.8214   11.4355 C.ar    1  UNL1       -0.0232
      8 C          62.7255   86.3996   11.8600 C.ar    1  UNL1        0.0144
      9 C          63.4972   86.1011   13.1112 C.ar    1  UNL1        0.0822
     10 C          61.7143   87.8975   10.1636 C.3     1  UNL1        0.0431
     11 C          61.2793   89.1158    9.4042 C.3     1  UNL1        0.0733
     12 N          61.5284   90.5587    9.7293 N.3     1  UNL1       -0.2969
     13 C          62.2741   91.1400   10.8938 C.3     1  UNL1        0.0733
     14 C          62.9548   90.4217   12.0210 C.3     1  UNL1        0.0431
     15 H          60.5975   90.9713    9.7903 H       1  UNL1        0.1233
     16 O          62.3695   83.3867   14.2467 O.2     1  UNL1       -0.1476
     17 S          63.5226   83.4341   13.2887 S.O2    1  UNL1        0.0860
     18 O          64.6759   83.4817   12.3307 O.2     1  UNL1       -0.1476
     19 C          63.1745   82.0589   12.8014 C.ar    1  UNL1        0.1277
     20 C          63.2632   81.7366   11.3391 C.ar    1  UNL1        0.0204
     21 C          62.9151   80.3614   10.8518 C.ar    1  UNL1        0.0014
     22 C          62.4782   79.3084   11.8267 C.ar    1  UNL1        0.0001
     23 C          62.3894   79.6308   13.2890 C.ar    1  UNL1        0.0014
     24 C          62.7376   81.0060   13.7763 C.ar    1  UNL1        0.0204
@<TRIPOS>BOND
     1    16    17    2
     2    17    18    2
     3    17    19    1
     4    19    20   ar
     5    20    21   ar
     6    21    22   ar
     7    22    23   ar
     8    23    24   ar
     9    17     1    1
    10     1     2   ar
    11     2     3   ar
    12     3     4   ar
    13     4     5   ar
    14     5     6   ar
    15     6     7   ar
    16     7     8   ar
    17     8     9   ar
    18     7    10    1
    19    10    11    1
    20    11    12    1
    21    12    13    1
    22    13    14    1
    23    24    19   ar
    24     9     1   ar
    25     9     4   ar
    26    14     6    1
    27    12    15    1
@<TRIPOS>MOLECULE
*****
 24 27 0 0 0
SMALL
GASTEIGER

@<TRIPOS>ATOM
      1 N          63.1917   89.0609   12.3594 N.ar    1  UNL1       -0.2077
      2 C          62.4188   89.4707   11.1409 C.ar    1  UNL1        0.0999
      3 C          61.9044   88.2270   10.4785 C.ar    1  UNL1        0.0220
      4 C          62.3593   87.0488   11.2876 C.ar    1  UNL1        0.0187
      5 C          62.1519   85.5731   11.1159 C.ar    1  UNL1       -0.0030
      6 C          62.7401   84.6128   12.1068 C.ar    1  UNL1       -0.0246
      7 C          63.5356   85.1281   13.2693 C.ar    1  UNL1       -0.0232
      8 C          63.7431   86.6037   13.4410 C.ar    1  UNL1        0.0144
      9 C          63.1549   87.5641   12.4501 C.ar    1  UNL1        0.0822
     10 C          64.2036   84.3499   14.3640 C.3     1  UNL1        0.0431
     11 C          64.2409   82.8640   14.5664 C.3     1  UNL1        0.0733
     12 N          63.6195   81.7896   13.7242 N.3     1  UNL1       -0.2969
     13 C          62.8072   81.9355   12.4716 C.3     1  UNL1        0.0733
     14 C          62.4159   83.1919   11.7518 C.3     1  UNL1        0.0431
     15 H          63.0104   81.2822   14.3660 H       1  UNL1        0.1233
     16 O          63.4776   89.1006   14.4610 O.2     1  UNL1       -0.1476
     17 S          63.8805   89.9856   13.3190 S.O2    1  UNL1        0.0860
     18 O          64.2834   90.8706   12.1768 O.2     1  UNL1       -0.1476
     19 C          64.5692   90.9103   14.2783 C.ar    1  UNL1        0.1277
     20 C          64.0362   91.0799   15.6702 C.ar    1  UNL1        0.0204
     21 C          64.7249   92.0046   16.6296 C.ar    1  UNL1        0.0014
     22 C          65.9467   92.7597   16.1973 C.ar    1  UNL1        0.0001
     23 C          66.4798   92.5901   14.8055 C.ar    1  UNL1        0.0014
     24 C          65.7911   91.6654   13.8461 C.ar    1  UNL1        0.0204
@<TRIPOS>BOND
     1    16    17    2
     2    17    18    2
     3    17    19    1
     4    19    20   ar
     5    20    21   ar
     6    21    22   ar
     7    22    23   ar
     8    23    24   ar
     9    17     1    1
    10     1     2   ar
    11     2     3   ar
    12     3     4   ar
    13     4     5   ar
    14     5     6   ar
    15     6     7   ar
    16     7     8   ar
    17     8     9   ar
    18     7    10    1
    19    10    11    1
    20    11    12    1
    21    12    13    1
    22    13    14    1
    23    24    19   ar
    24     9     1   ar
    25     9     4   ar
    26    14     6    1
    27    12    15    1
@<TRIPOS>MOLECULE
*****
 24 27 0 0 0
SMALL
GASTEIGER

@<TRIPOS>ATOM
      1 N          63.5177   87.3959   13.2197 N.ar    1  UNL1       -0.2077
      2 C          63.8853   85.9885   13.5859 C.ar    1  UNL1        0.0999
      3 C          63.2470   85.0682   12.5881 C.ar    1  UNL1        0.0220
      4 C          62.4850   85.9068   11.6053 C.ar    1  UNL1        0.0187
      5 C          61.6603   85.5462   10.4052 C.ar    1  UNL1       -0.0030
      6 C          61.0029   86.6244    9.5956 C.ar    1  UNL1       -0.0246
      7 C          61.1702   88.0629    9.9859 C.ar    1  UNL1       -0.0232
      8 C          61.9948   88.4235   11.1859 C.ar    1  UNL1        0.0144
      9 C          62.6522   87.3454   11.9956 C.ar    1  UNL1        0.0822
     10 C          60.6055   89.2839    9.3221 C.3     1  UNL1        0.0431
     11 C          59.7341   89.3676    8.1040 C.3     1  UNL1        0.0733
     12 N          59.2122   88.2512    7.2490 N.3     1  UNL1       -0.2969
     13 C          59.4327   86.7753    7.4007 C.3     1  UNL1        0.0733
     14 C          60.2297   86.0513    8.4451 C.3     1  UNL1        0.0431
     15 H          59.5540   88.4657    6.3122 H       1  UNL1        0.1233
     16 O          63.9478   87.8739   15.2412 O.2     1  UNL1       -0.1476
     17 S          63.9411   88.6362   13.9494 S.O2    1  UNL1        0.0860
     18 O          63.9344   89.3985   12.6575 O.2     1  UNL1       -0.1476
     19 C          64.3646   89.8764   14.6790 C.ar    1  UNL1        0.1277
     20 C          63.6352   90.3035   15.9183 C.ar    1  UNL1        0.0204
     21 C          64.0586   91.5438   16.6479 C.ar    1  UNL1        0.0014
     22 C          65.2114   92.3571   16.1384 C.ar    1  UNL1        0.0001
     23 C          65.9408   91.9300   14.8992 C.ar    1  UNL1        0.0014
     24 C          65.5174   90.6897   14.1696 C.ar    1  UNL1        0.0204
@<TRIPOS>BOND
     1    16    17    2
     2    17    18    2
     3    17    19    1
     4    19    20   ar
     5    20    21   ar
     6    21    22   ar
     7    22    23   ar
     8    23    24   ar
     9    17     1    1
    10     1     2   ar
    11     2     3   ar
    12     3     4   ar
    13     4     5   ar
    14     5     6   ar
    15     6     7   ar
    16     7     8   ar
    17     8     9   ar
    18     7    10    1
    19    10    11    1
    20    11    12    1
    21    12    13    1
    22    13    14    1
    23    24    19   ar
    24     9     1   ar
    25     9     4   ar
    26    14     6    1
    27    12    15    1
@<TRIPOS>MOLECULE
*****
 24 27 0 0 0
SMALL
GASTEIGER

@<TRIPOS>ATOM
      1 N          62.2588   85.9015   10.9816 N.ar    1  UNL1       -0.2077
      2 C          61.5937   86.1259    9.6560 C.ar    1  UNL1        0.0999
      3 C          61.6700   87.5905    9.3412 C.ar    1  UNL1        0.0220
      4 C          62.3822   88.2712   10.4722 C.ar    1  UNL1        0.0187
      5 C          62.7464   89.7069   10.7098 C.ar    1  UNL1       -0.0030
      6 C          63.4745   90.0986   11.9615 C.ar    1  UNL1       -0.0246
      7 C          63.8384   89.0548   12.9752 C.ar    1  UNL1       -0.0232
      8 C          63.4742   87.6192   12.7377 C.ar    1  UNL1        0.0144
      9 C          62.7461   87.2274   11.4861 C.ar    1  UNL1        0.0822
     10 C          64.5584   89.2288   14.2797 C.3     1  UNL1        0.0431
     11 C          65.0922   90.4897   14.8923 C.3     1  UNL1        0.0733
     12 N          65.0380   91.8878   14.3519 N.3     1  UNL1       -0.2969
     13 C          64.4365   92.3705   13.0653 C.3     1  UNL1        0.0733
     14 C          63.7406   91.5743   12.0015 C.3     1  UNL1        0.0431
     15 H          66.0137   92.1811   14.3037 H       1  UNL1        0.1233
     16 O          61.8025   85.1697   12.9197 O.2     1  UNL1       -0.1476
     17 S          62.4100   84.5828   11.6803 S.O2    1  UNL1        0.0860
     18 O          63.0177   83.9959   10.4407 O.2     1  UNL1       -0.1476
     19 C          62.5614   83.2640   12.3788 C.ar    1  UNL1        0.1277
     20 C          62.4953   83.1963   13.8758 C.ar    1  UNL1        0.0204
     21 C          62.6466   81.8776   14.5743 C.ar    1  UNL1        0.0014
     22 C          62.8640   80.6265   13.7760 C.ar    1  UNL1        0.0001
     23 C          62.9300   80.6942   12.2789 C.ar    1  UNL1        0.0014
     24 C          62.7787   82.0129   11.5804 C.ar    1  UNL1        0.0204
@<TRIPOS>BOND
     1    16    17    2
     2    17    18    2
     3    17    19    1
     4    19    20   ar
     5    20    21   ar
     6    21    22   ar
     7    22    23   ar
     8    23    24   ar
     9    17     1    1
    10     1     2   ar
    11     2     3   ar
    12     3     4   ar
    13     4     5   ar
    14     5     6   ar
    15     6     7   ar
    16     7     8   ar
    17     8     9   ar
    18     7    10    1
    19    10    11    1
    20    11    12    1
    21    12    13    1
    22    13    14    1
    23    24    19   ar
    24     9     1   ar
    25     9     4   ar
    26    14     6    1
    27    12    15    1
@<TRIPOS>MOLECULE
*****
 24 27 0 0 0
SMALL
GASTEIGER

@<TRIPOS>ATOM
      1 N          61.7112   90.2790   11.4633 N.ar    1  UNL1       -0.2077
      2 C          60.3887   90.9715   11.6107 C.ar    1  UNL1        0.0999
      3 C          59.3920   90.2555   10.7482 C.ar    1  UNL1        0.0220
      4 C          60.0984   89.1206   10.0678 C.ar    1  UNL1        0.0187
      5 C          59.6215   88.0758    9.1029 C.ar    1  UNL1       -0.0030
      6 C          60.5782   87.0455    8.5799 C.ar    1  UNL1       -0.0246
      7 C          62.0114   87.0600    9.0218 C.ar    1  UNL1       -0.0232
      8 C          62.4883   88.1048    9.9867 C.ar    1  UNL1        0.0144
      9 C          61.5317   89.1351   10.5097 C.ar    1  UNL1        0.0822
     10 C          63.1218   86.1324    8.6258 C.3     1  UNL1        0.0431
     11 C          63.0728   84.9611    7.6899 C.3     1  UNL1        0.0733
     12 N          61.9016   84.4283    6.9191 N.3     1  UNL1       -0.2969
     13 C          60.4900   84.9350    6.8936 C.3     1  UNL1        0.0733
     14 C          59.9010   86.0998    7.6327 C.3     1  UNL1        0.0431
     15 H          61.8190   83.4569    7.2189 H       1  UNL1        0.1233
     16 O          63.3835   91.4813   10.9555 O.2     1  UNL1       -0.1476
     17 S          62.9888   90.6630   12.1490 S.O2    1  UNL1        0.0860
     18 O          62.5940   89.8447   13.3426 O.2     1  UNL1       -0.1476
     19 C          64.2664   91.0469   12.8348 C.ar    1  UNL1        0.1277
     20 C          65.2057   92.0174   12.1821 C.ar    1  UNL1        0.0204
     21 C          66.4832   92.4013   12.8679 C.ar    1  UNL1        0.0014
     22 C          66.8216   91.8149   14.2064 C.ar    1  UNL1        0.0001
     23 C          65.8823   90.8444   14.8591 C.ar    1  UNL1        0.0014
     24 C          64.6048   90.4605   14.1733 C.ar    1  UNL1        0.0204
@<TRIPOS>BOND
     1    16    17    2
     2    17    18    2
     3    17    19    1
     4    19    20   ar
     5    20    21   ar
     6    21    22   ar
     7    22    23   ar
     8    23    24   ar
     9    17     1    1
    10     1     2   ar
    11     2     3   ar
    12     3     4   ar
    13     4     5   ar
    14     5     6   ar
    15     6     7   ar
    16     7     8   ar
    17     8     9   ar
    18     7    10    1
    19    10    11    1
    20    11    12    1
    21    12    13    1
    22    13    14    1
    23    24    19   ar
    24     9     1   ar
    25     9     4   ar
    26    14     6    1
    27    12    15    1
@<TRIPOS>MOLECULE
*****
 24 27 0 0 0
SMALL
GASTEIGER

@<TRIPOS>ATOM
      1 N          63.0976   88.1169   12.4101 N.ar    1  UNL1       -0.2077
      2 C          63.3026   87.3676   13.6933 C.ar    1  UNL1        0.0999
      3 C          64.1353   88.2231   14.6016 C.ar    1  UNL1        0.0220
      4 C          64.4449   89.5010   13.8797 C.ar    1  UNL1        0.0187
      5 C          65.2279   90.7159   14.2807 C.ar    1  UNL1       -0.0030
      6 C          65.3696   91.8652   13.3273 C.ar    1  UNL1       -0.0246
      7 C          64.7284   91.7996   11.9730 C.ar    1  UNL1       -0.0232
      8 C          63.9453   90.5847   11.5719 C.ar    1  UNL1        0.0144
      9 C          63.8035   89.4354   12.5253 C.ar    1  UNL1        0.0822
     10 C          64.7459   92.8259   10.8791 C.3     1  UNL1        0.0431
     11 C          65.4092   94.1713   10.8696 C.3     1  UNL1        0.0733
     12 N          66.2186   94.8226   11.9514 N.3     1  UNL1       -0.2969
     13 C          66.5648   94.2895   13.3101 C.3     1  UNL1        0.0733
     14 C          66.1869   92.9733   13.9224 C.3     1  UNL1        0.0431
     15 H          65.7362   95.7019   12.1373 H       1  UNL1        0.1233
     16 O          61.8117   89.0235   10.9873 O.2     1  UNL1       -0.1476
     17 S          62.3227   87.6327   11.2205 S.O2    1  UNL1        0.0860
     18 O          62.8338   86.2419   11.4538 O.2     1  UNL1       -0.1476
     19 C          61.5479   87.1485   10.0310 C.ar    1  UNL1        0.1277
     20 C          62.1810   86.1957    9.0607 C.ar    1  UNL1        0.0204
     21 C          61.4062   85.7114    7.8712 C.ar    1  UNL1        0.0014
     22 C          59.9982   86.1799    7.6517 C.ar    1  UNL1        0.0001
     23 C          59.3651   87.1327    8.6220 C.ar    1  UNL1        0.0014
     24 C          60.1399   87.6169    9.8116 C.ar    1  UNL1        0.0204
@<TRIPOS>BOND
     1    16    17    2
     2    17    18    2
     3    17    19    1
     4    19    20   ar
     5    20    21   ar
     6    21    22   ar
     7    22    23   ar
     8    23    24   ar
     9    17     1    1
    10     1     2   ar
    11     2     3   ar
    12     3     4   ar
    13     4     5   ar
    14     5     6   ar
    15     6     7   ar
    16     7     8   ar
    17     8     9   ar
    18     7    10    1
    19    10    11    1
    20    11    12    1
    21    12    13    1
    22    13    14    1
    23    24    19   ar
    24     9     1   ar
    25     9     4   ar
    26    14     6    1
    27    12    15    1
@<TRIPOS>MOLECULE
*****
 24 27 0 0 0
SMALL
GASTEIGER

@<TRIPOS>ATOM
      1 N          72.2674   74.3743   15.2660 N.ar    1  UNL1       -0.2077
      2 C          72.7980   73.9810   16.6128 C.ar    1  UNL1        0.0999
      3 C          72.5375   72.5162   16.8038 C.ar    1  UNL1        0.0220
      4 C          71.8458   72.0043   15.5752 C.ar    1  UNL1        0.0187
      5 C          71.3464   70.6407   15.1991 C.ar    1  UNL1       -0.0030
      6 C          70.6801   70.4256   13.8725 C.ar    1  UNL1       -0.0246
      7 C          70.5132   71.5740   12.9221 C.ar    1  UNL1       -0.0232
      8 C          71.0126   72.9375   13.2982 C.ar    1  UNL1        0.0144
      9 C          71.6789   73.1527   14.6248 C.ar    1  UNL1        0.0822
     10 C          69.8830   71.5775   11.5609 C.3     1  UNL1        0.0431
     11 C          69.2640   70.4333   10.8140 C.3     1  UNL1        0.0733
     12 N          69.1224   69.0033   11.2438 N.3     1  UNL1       -0.2969
     13 C          69.5648   68.3640   12.5267 C.3     1  UNL1        0.0733
     14 C          70.2580   68.9970   13.6966 C.3     1  UNL1        0.0431
     15 H          69.5967   68.4694   10.5155 H       1  UNL1        0.1233
     16 O          73.6284   75.4181   14.0177 O.2     1  UNL1       -0.1476
     17 S          72.3166   75.7482   14.6658 S.O2    1  UNL1        0.0860
     18 O          71.0047   76.0782   15.3140 O.2     1  UNL1       -0.1476
     19 C          72.3657   77.1219   14.0657 C.ar    1  UNL1        0.1277
     20 C          72.1279   77.3074   12.5962 C.ar    1  UNL1        0.0204
     21 C          72.1769   78.6812   11.9961 C.ar    1  UNL1        0.0014
     22 C          72.4639   79.8696   12.8652 C.ar    1  UNL1        0.0001
     23 C          72.7017   79.6841   14.3346 C.ar    1  UNL1        0.0014
     24 C          72.6526   78.3103   14.9348 C.ar    1  UNL1        0.0204
@<TRIPOS>BOND
     1    16    17    2
     2    17    18    2
     3    17    19    1
     4    19    20   ar
     5    20    21   ar
     6    21    22   ar
     7    22    23   ar
     8    23    24   ar
     9    17     1    1
    10     1     2   ar
    11     2     3   ar
    12     3     4   ar
    13     4     5   ar
    14     5     6   ar
    15     6     7   ar
    16     7     8   ar
    17     8     9   ar
    18     7    10    1
    19    10    11    1
    20    11    12    1
    21    12    13    1
    22    13    14    1
    23    24    19   ar
    24     9     1   ar
    25     9     4   ar
    26    14     6    1
    27    12    15    1
@<TRIPOS>MOLECULE
*****
 24 27 0 0 0
SMALL
GASTEIGER

@<TRIPOS>ATOM
      1 N          62.1306   86.2954    9.8690 N.ar    1  UNL1       -0.2077
      2 C          62.7083   86.0943    8.4994 C.ar    1  UNL1        0.0999
      3 C          63.4126   84.7700    8.4834 C.ar    1  UNL1        0.0220
      4 C          63.2702   84.1528    9.8430 C.ar    1  UNL1        0.0187
      5 C          63.7596   82.8540   10.4119 C.ar    1  UNL1       -0.0030
      6 C          63.4567   82.4980   11.8373 C.ar    1  UNL1       -0.0246
      7 C          62.6644   83.4407   12.6936 C.ar    1  UNL1       -0.0232
      8 C          62.1750   84.7394   12.1248 C.ar    1  UNL1        0.0144
      9 C          62.4778   85.0955   10.6994 C.ar    1  UNL1        0.0822
     10 C          62.2546   83.2815   14.1278 C.3     1  UNL1        0.0431
     11 C          62.5360   82.1403   15.0597 C.3     1  UNL1        0.0733
     12 N          63.2965   80.8764   14.7876 N.3     1  UNL1       -0.2969
     13 C          63.9637   80.4415   13.5165 C.3     1  UNL1        0.0733
     14 C          64.0350   81.1632   12.2034 C.3     1  UNL1        0.0431
     15 H          62.6342   80.1296   14.9970 H       1  UNL1        0.1233
     16 O          62.5204   87.9546   11.1320 O.2     1  UNL1       -0.1476
     17 S          61.3437   87.4873   10.3278 S.O2    1  UNL1        0.0860
     18 O          60.1669   87.0198    9.5236 O.2     1  UNL1       -0.1476
     19 C          60.5568   88.6790   10.7865 C.ar    1  UNL1        0.1277
     20 C          60.8788   90.0422   10.2497 C.ar    1  UNL1        0.0204
     21 C          60.0919   91.2340   10.7084 C.ar    1  UNL1        0.0014
     22 C          58.9830   91.0627   11.7039 C.ar    1  UNL1        0.0001
     23 C          58.6610   89.6995   12.2406 C.ar    1  UNL1        0.0014
     24 C          59.4479   88.5077   11.7819 C.ar    1  UNL1        0.0204
@<TRIPOS>BOND
     1    16    17    2
     2    17    18    2
     3    17    19    1
     4    19    20   ar
     5    20    21   ar
     6    21    22   ar
     7    22    23   ar
     8    23    24   ar
     9    17     1    1
    10     1     2   ar
    11     2     3   ar
    12     3     4   ar
    13     4     5   ar
    14     5     6   ar
    15     6     7   ar
    16     7     8   ar
    17     8     9   ar
    18     7    10    1
    19    10    11    1
    20    11    12    1
    21    12    13    1
    22    13    14    1
    23    24    19   ar
    24     9     1   ar
    25     9     4   ar
    26    14     6    1
    27    12    15    1
