@<TRIPOS>MOLECULE
*****
 35 39 0 0 0
SMALL
GASTEIGER

@<TRIPOS>ATOM
      1 O          63.5162   90.2077   17.1778 O.2     1  UNL1       -0.2749
      2 C          63.9258   89.8481   15.7804 C.2     1  UNL1        0.2252
      3 N          63.7785   88.4363   15.2955 N.am    1  UNL1       -0.2794
      4 C          63.2216   87.3841   16.2081 C.3     1  UNL1        0.0953
      5 C          63.0743   85.9723   15.7232 C.3     1  UNL1        0.0442
      6 C          63.4839   85.6127   14.3257 C.3     1  UNL1        0.0933
      7 C          64.0408   86.6648   13.4132 C.3     1  UNL1        0.0442
      8 C          64.1881   88.0766   13.8981 C.3     1  UNL1        0.0953
      9 N          63.3366   84.2008   13.8408 N.ar    1  UNL1       -0.2817
     10 C          63.0083   83.0074   14.6881 C.ar    1  UNL1        0.3316
     11 O          62.7696   83.0162   16.1689 O.2     1  UNL1       -0.2463
     12 N          62.9605   81.8036   13.7944 N.ar    1  UNL1       -0.2774
     13 C          63.2594   82.2531   12.3949 C.ar    1  UNL1        0.0798
     14 C          63.3499   81.5047   11.0981 C.ar    1  UNL1        0.0188
     15 C          63.6728   82.2379    9.8300 C.ar    1  UNL1        0.0016
     16 C          63.9053   83.7195    9.8587 C.ar    1  UNL1        0.0016
     17 C          63.8148   84.4679   11.1555 C.ar    1  UNL1        0.0188
     18 C          63.4918   83.7347   12.4236 C.ar    1  UNL1        0.0796
     19 C          62.6657   80.3972   14.2247 C.3     1  UNL1        0.1422
     20 C          61.2693   79.8589   14.1230 C.3     1  UNL1        0.1617
     21 O          60.0967   80.7748   14.3133 O.3     1  UNL1       -0.3799
     22 H          60.0812   81.0943   15.2290 H       1  UNL1        0.2105
     23 C          64.4828   90.9003   14.8678 C.3     1  UNL1        0.0795
     24 C          65.5623   91.8206   15.3551 C.3     1  UNL1        0.0264
     25 C          66.1193   92.8728   14.4425 C.3     1  UNL1        0.0729
     26 N          65.5966   93.0046   13.0427 N.3     1  UNL1       -0.2689
     27 C          64.5170   92.0842   12.5554 C.3     1  UNL1        0.0729
     28 C          63.9600   91.0320   13.4680 C.3     1  UNL1        0.0264
     29 C          66.1535   94.0567   12.1301 C.3     1  UNL1        0.0992
     30 C          66.8920   93.6571   10.8872 C.ar    1  UNL1       -0.0031
     31 C          67.5992   92.3357   10.8272 C.ar    1  UNL1        0.0178
     32 C          68.3377   91.9360    9.5843 C.ar    1  UNL1        0.0986
     33 N          68.3689   92.8577    8.4013 N.ar    1  UNL1       -0.2423
     34 C          67.6617   94.1792    8.4613 C.ar    1  UNL1        0.0986
     35 C          66.9232   94.5789    9.7042 C.ar    1  UNL1        0.0178
@<TRIPOS>BOND
     1     1     2    2
     2     2    23    1
     3    23    24    1
     4    24    25    1
     5    25    26    1
     6    26    29    1
     7    29    30    1
     8    30    31   ar
     9    31    32   ar
    10    32    33   ar
    11    33    34   ar
    12    34    35   ar
    13    26    27    1
    14    27    28    1
    15     2     3   am
    16     3     4    1
    17     4     5    1
    18     5     6    1
    19     6     9    1
    20     9    10   ar
    21    10    11    2
    22    10    12   ar
    23    12    19    1
    24    19    20    1
    25    20    21    1
    26    12    13   ar
    27    13    14   ar
    28    14    15   ar
    29    15    16   ar
    30    16    17   ar
    31    17    18   ar
    32     6     7    1
    33     7     8    1
    34    28    23    1
    35     8     3    1
    36    35    30   ar
    37    18     9   ar
    38    18    13   ar
    39    21    22    1
@<TRIPOS>MOLECULE
*****
 35 39 0 0 0
SMALL
GASTEIGER

@<TRIPOS>ATOM
      1 O          58.3282   87.3936    7.1114 O.2     1  UNL1       -0.2749
      2 C          59.2664   88.5390    7.3519 C.2     1  UNL1        0.2252
      3 N          60.1583   88.5373    8.5579 N.am    1  UNL1       -0.2794
      4 C          60.1121   87.3902    9.5233 C.3     1  UNL1        0.0953
      5 C          61.0040   87.3884   10.7293 C.3     1  UNL1        0.0442
      6 C          61.9423   88.5339   10.9699 C.3     1  UNL1        0.0933
      7 C          61.9885   89.6809   10.0045 C.3     1  UNL1        0.0442
      8 C          61.0966   89.6826    8.7985 C.3     1  UNL1        0.0953
      9 N          62.8342   88.5321   12.1759 N.ar    1  UNL1       -0.2817
     10 C          63.3868   89.7441   12.8656 C.ar    1  UNL1        0.3316
     11 O          63.1445   91.1707   12.4704 O.2     1  UNL1       -0.2463
     12 N          64.2243   89.2791   14.0199 N.ar    1  UNL1       -0.2774
     13 C          64.1893   87.7797   14.0436 C.ar    1  UNL1        0.0798
     14 C          64.8287   86.7751   14.9557 C.ar    1  UNL1        0.0188
     15 C          64.6090   85.3088   14.7281 C.ar    1  UNL1        0.0016
     16 C          63.7499   84.8472   13.5884 C.ar    1  UNL1        0.0016
     17 C          63.1105   85.8518   12.6763 C.ar    1  UNL1        0.0188
     18 C          63.3302   87.3180   12.9039 C.ar    1  UNL1        0.0796
     19 C          64.9665   90.1589   14.9817 C.3     1  UNL1        0.1422
     20 C          65.9086   91.2063   14.4662 C.3     1  UNL1        0.1617
     21 O          65.3701   92.4895   13.9066 O.3     1  UNL1       -0.3799
     22 H          64.8729   92.3046   13.0944 H       1  UNL1        0.2105
     23 C          59.3127   89.6861    6.3865 C.3     1  UNL1        0.0795
     24 C          58.0566   90.4332    6.0488 C.3     1  UNL1        0.0264
     25 C          58.1029   91.5803    5.0834 C.3     1  UNL1        0.0729
     26 N          59.4052   91.9803    4.4557 N.3     1  UNL1       -0.2689
     27 C          60.6613   91.2331    4.7934 C.3     1  UNL1        0.0729
     28 C          60.6151   90.0860    5.7588 C.3     1  UNL1        0.0264
     29 C          59.4515   93.1274    3.4903 C.3     1  UNL1        0.0992
     30 C          60.1665   92.9768    2.1803 C.ar    1  UNL1       -0.0031
     31 C          61.6626   93.0717    2.1273 C.ar    1  UNL1        0.0178
     32 C          62.3777   92.9212    0.8174 C.ar    1  UNL1        0.0986
     33 N          61.5967   92.6758   -0.4395 N.ar    1  UNL1       -0.2423
     34 C          60.1007   92.5809   -0.3865 C.ar    1  UNL1        0.0986
     35 C          59.3856   92.7314    0.9234 C.ar    1  UNL1        0.0178
@<TRIPOS>BOND
     1     1     2    2
     2     2    23    1
     3    23    24    1
     4    24    25    1
     5    25    26    1
     6    26    29    1
     7    29    30    1
     8    30    31   ar
     9    31    32   ar
    10    32    33   ar
    11    33    34   ar
    12    34    35   ar
    13    26    27    1
    14    27    28    1
    15     2     3   am
    16     3     4    1
    17     4     5    1
    18     5     6    1
    19     6     9    1
    20     9    10   ar
    21    10    11    2
    22    10    12   ar
    23    12    19    1
    24    19    20    1
    25    20    21    1
    26    12    13   ar
    27    13    14   ar
    28    14    15   ar
    29    15    16   ar
    30    16    17   ar
    31    17    18   ar
    32     6     7    1
    33     7     8    1
    34    28    23    1
    35     8     3    1
    36    35    30   ar
    37    18     9   ar
    38    18    13   ar
    39    21    22    1
@<TRIPOS>MOLECULE
*****
 35 39 0 0 0
SMALL
GASTEIGER

@<TRIPOS>ATOM
      1 O          58.2475   87.4274    7.0202 O.2     1  UNL1       -0.2749
      2 C          59.2351   88.5242    7.2874 C.2     1  UNL1        0.2252
      3 N          60.1260   88.4541    8.4922 N.am    1  UNL1       -0.2794
      4 C          60.0292   87.2872    9.4296 C.3     1  UNL1        0.0953
      5 C          60.9201   87.2171   10.6344 C.3     1  UNL1        0.0442
      6 C          61.9078   88.3140   10.9017 C.3     1  UNL1        0.0933
      7 C          62.0045   89.4808    9.9642 C.3     1  UNL1        0.0442
      8 C          61.1136   89.5510    8.7595 C.3     1  UNL1        0.0953
      9 N          62.7987   88.2439   12.1064 N.ar    1  UNL1       -0.2817
     10 C          63.1366   87.0053   12.8822 C.ar    1  UNL1        0.3316
     11 O          62.6431   85.6194   12.5894 O.2     1  UNL1       -0.2463
     12 N          64.0548   87.3960   14.0021 N.ar    1  UNL1       -0.2774
     13 C          64.2843   88.8760   13.9185 C.ar    1  UNL1        0.0798
     14 C          65.0999   89.8142   14.7579 C.ar    1  UNL1        0.0188
     15 C          65.1392   91.2764   14.4256 C.ar    1  UNL1        0.0016
     16 C          64.3628   91.8004   13.2540 C.ar    1  UNL1        0.0016
     17 C          63.5472   90.8622   12.4147 C.ar    1  UNL1        0.0188
     18 C          63.5080   89.4000   12.7469 C.ar    1  UNL1        0.0796
     19 C          64.6407   86.4695   15.0259 C.3     1  UNL1        0.1422
     20 C          63.7499   85.8065   16.0345 C.3     1  UNL1        0.1617
     21 O          62.5192   85.0771   15.5836 O.3     1  UNL1       -0.3799
     22 H          61.8901   85.7094   15.2022 H       1  UNL1        0.2105
     23 C          59.3319   89.6912    6.3500 C.3     1  UNL1        0.0795
     24 C          60.6568   90.0686    5.7565 C.3     1  UNL1        0.0264
     25 C          60.7535   91.2355    4.8190 C.3     1  UNL1        0.0729
     26 N          59.5254   92.0251    4.4750 N.3     1  UNL1       -0.2689
     27 C          58.2005   91.6477    5.0685 C.3     1  UNL1        0.0729
     28 C          58.1037   90.4807    6.0060 C.3     1  UNL1        0.0264
     29 C          59.6222   93.1920    3.5376 C.3     1  UNL1        0.0992
     30 C          60.2161   93.0101    2.1723 C.ar    1  UNL1       -0.0031
     31 C          61.6938   93.1694    1.9699 C.ar    1  UNL1        0.0178
     32 C          62.2878   92.9875    0.6046 C.ar    1  UNL1        0.0986
     33 N          61.4040   92.6462   -0.5584 N.ar    1  UNL1       -0.2423
     34 C          59.9263   92.4868   -0.3560 C.ar    1  UNL1        0.0986
     35 C          59.3323   92.6688    1.0093 C.ar    1  UNL1        0.0178
@<TRIPOS>BOND
     1     1     2    2
     2     2    23    1
     3    23    24    1
     4    24    25    1
     5    25    26    1
     6    26    29    1
     7    29    30    1
     8    30    31   ar
     9    31    32   ar
    10    32    33   ar
    11    33    34   ar
    12    34    35   ar
    13    26    27    1
    14    27    28    1
    15     2     3   am
    16     3     4    1
    17     4     5    1
    18     5     6    1
    19     6     9    1
    20     9    10   ar
    21    10    11    2
    22    10    12   ar
    23    12    19    1
    24    19    20    1
    25    20    21    1
    26    12    13   ar
    27    13    14   ar
    28    14    15   ar
    29    15    16   ar
    30    16    17   ar
    31    17    18   ar
    32     6     7    1
    33     7     8    1
    34    28    23    1
    35     8     3    1
    36    35    30   ar
    37    18     9   ar
    38    18    13   ar
    39    21    22    1
@<TRIPOS>MOLECULE
*****
 35 39 0 0 0
SMALL
GASTEIGER

@<TRIPOS>ATOM
      1 O          62.0129   86.3665   18.0289 O.2     1  UNL1       -0.2749
      2 C          62.7187   86.2461   16.7108 C.2     1  UNL1        0.2252
      3 N          63.2877   87.4669   16.0505 N.am    1  UNL1       -0.2794
      4 C          63.1508   88.8080   16.7083 C.3     1  UNL1        0.0953
      5 C          63.7199   90.0287   16.0480 C.3     1  UNL1        0.0442
      6 C          64.4257   89.9084   14.7299 C.3     1  UNL1        0.0933
      7 C          64.5625   88.5673   14.0722 C.3     1  UNL1        0.0442
      8 C          63.9935   87.3465   14.7325 C.3     1  UNL1        0.0953
      9 N          64.9947   91.1291   14.0696 N.ar    1  UNL1       -0.2817
     10 C          64.6304   91.6468   12.7097 C.ar    1  UNL1        0.3316
     11 O          63.6330   91.0346   11.7714 O.2     1  UNL1       -0.2463
     12 N          65.4385   92.8841   12.4530 N.ar    1  UNL1       -0.2774
     13 C          66.3023   93.1312   13.6541 C.ar    1  UNL1        0.0798
     14 C          67.3031   94.2037   13.9672 C.ar    1  UNL1        0.0188
     15 C          68.0297   94.1915   15.2794 C.ar    1  UNL1        0.0016
     16 C          67.7554   93.1068   16.2785 C.ar    1  UNL1        0.0016
     17 C          66.7546   92.0343   15.9655 C.ar    1  UNL1        0.0188
     18 C          66.0280   92.0465   14.6533 C.ar    1  UNL1        0.0796
     19 C          65.3911   93.7266   11.2128 C.3     1  UNL1        0.1422
     20 C          66.4890   93.6262   10.1955 C.3     1  UNL1        0.1617
     21 O          67.5990   94.6350   10.1880 O.3     1  UNL1       -0.3799
     22 H          67.2421   95.5067    9.9562 H       1  UNL1        0.2105
     23 C          62.8555   84.9050   16.0531 C.3     1  UNL1        0.0795
     24 C          61.6431   84.2094   15.5088 C.3     1  UNL1        0.0264
     25 C          61.7799   82.8683   14.8510 C.3     1  UNL1        0.0729
     26 N          63.1291   82.2228   14.7375 N.3     1  UNL1       -0.2689
     27 C          64.3416   82.9184   15.2818 C.3     1  UNL1        0.0729
     28 C          64.2048   84.2595   15.9396 C.3     1  UNL1        0.0264
     29 C          63.2659   80.8816   14.0797 C.3     1  UNL1        0.0992
     30 C          63.2197   80.7714   12.5846 C.ar    1  UNL1       -0.0031
     31 C          63.6338   81.9351   11.7336 C.ar    1  UNL1        0.0178
     32 C          63.5876   81.8249   10.2384 C.ar    1  UNL1        0.0986
     33 N          63.1272   80.5510    9.5941 N.ar    1  UNL1       -0.2423
     34 C          62.7131   79.3872   10.4451 C.ar    1  UNL1        0.0986
     35 C          62.7593   79.4974   11.9403 C.ar    1  UNL1        0.0178
@<TRIPOS>BOND
     1     1     2    2
     2     2    23    1
     3    23    24    1
     4    24    25    1
     5    25    26    1
     6    26    29    1
     7    29    30    1
     8    30    31   ar
     9    31    32   ar
    10    32    33   ar
    11    33    34   ar
    12    34    35   ar
    13    26    27    1
    14    27    28    1
    15     2     3   am
    16     3     4    1
    17     4     5    1
    18     5     6    1
    19     6     9    1
    20     9    10   ar
    21    10    11    2
    22    10    12   ar
    23    12    19    1
    24    19    20    1
    25    20    21    1
    26    12    13   ar
    27    13    14   ar
    28    14    15   ar
    29    15    16   ar
    30    16    17   ar
    31    17    18   ar
    32     6     7    1
    33     7     8    1
    34    28    23    1
    35     8     3    1
    36    35    30   ar
    37    18     9   ar
    38    18    13   ar
    39    21    22    1
@<TRIPOS>MOLECULE
*****
 35 39 0 0 0
SMALL
GASTEIGER

@<TRIPOS>ATOM
      1 O          61.2764   90.3689   11.0982 O.2     1  UNL1       -0.2749
      2 C          62.2908   89.6364   11.9254 C.2     1  UNL1        0.2252
      3 N          62.4097   88.1449   11.8186 N.am    1  UNL1       -0.2794
      4 C          61.5143   87.3861   10.8846 C.3     1  UNL1        0.0953
      5 C          61.6333   85.8946   10.7778 C.3     1  UNL1        0.0442
      6 C          62.6477   85.1619   11.6051 C.3     1  UNL1        0.0933
      7 C          63.5431   85.9208   12.5390 C.3     1  UNL1        0.0442
      8 C          63.4241   87.4123   12.6458 C.3     1  UNL1        0.0953
      9 N          62.7667   83.6705   11.4983 N.ar    1  UNL1       -0.2817
     10 C          63.2449   82.9078   10.2984 C.ar    1  UNL1        0.3316
     11 O          63.6882   83.5027    8.9947 O.2     1  UNL1       -0.2463
     12 N          63.2021   81.4458   10.6313 N.ar    1  UNL1       -0.2774
     13 C          62.6973   81.3049   12.0367 C.ar    1  UNL1        0.0798
     14 C          62.4480   80.1023   12.8978 C.ar    1  UNL1        0.0188
     15 C          61.9296   80.2746   14.2948 C.ar    1  UNL1        0.0016
     16 C          61.6605   81.6496   14.8306 C.ar    1  UNL1        0.0016
     17 C          61.9098   82.8522   13.9696 C.ar    1  UNL1        0.0188
     18 C          62.4282   82.6799   12.5726 C.ar    1  UNL1        0.0796
     19 C          63.5949   80.3220    9.7188 C.3     1  UNL1        0.1422
     20 C          62.6347   79.2004    9.4538 C.3     1  UNL1        0.1617
     21 O          62.8331   77.8704   10.1186 O.3     1  UNL1       -0.3799
     22 H          63.6512   77.4644    9.7918 H       1  UNL1        0.2105
     23 C          63.1862   90.3952   12.8594 C.3     1  UNL1        0.0795
     24 C          64.1289   91.4296   12.3197 C.3     1  UNL1        0.0264
     25 C          65.0244   92.1884   13.2537 C.3     1  UNL1        0.0729
     26 N          64.9771   91.9129   14.7274 N.3     1  UNL1       -0.2689
     27 C          64.0343   90.8784   15.2671 C.3     1  UNL1        0.0729
     28 C          63.1389   90.1196   14.3331 C.3     1  UNL1        0.0264
     29 C          65.8725   92.6717   15.6614 C.3     1  UNL1        0.0992
     30 C          67.3342   92.8081   15.3538 C.ar    1  UNL1       -0.0031
     31 C          67.9649   91.9373   14.3078 C.ar    1  UNL1        0.0178
     32 C          69.4267   92.0737   14.0001 C.ar    1  UNL1        0.0986
     33 N          70.2577   93.0808   14.7383 N.ar    1  UNL1       -0.2423
     34 C          69.6270   93.9516   15.7843 C.ar    1  UNL1        0.0986
     35 C          68.1653   93.8152   16.0920 C.ar    1  UNL1        0.0178
@<TRIPOS>BOND
     1     1     2    2
     2     2    23    1
     3    23    24    1
     4    24    25    1
     5    25    26    1
     6    26    29    1
     7    29    30    1
     8    30    31   ar
     9    31    32   ar
    10    32    33   ar
    11    33    34   ar
    12    34    35   ar
    13    26    27    1
    14    27    28    1
    15     2     3   am
    16     3     4    1
    17     4     5    1
    18     5     6    1
    19     6     9    1
    20     9    10   ar
    21    10    11    2
    22    10    12   ar
    23    12    19    1
    24    19    20    1
    25    20    21    1
    26    12    13   ar
    27    13    14   ar
    28    14    15   ar
    29    15    16   ar
    30    16    17   ar
    31    17    18   ar
    32     6     7    1
    33     7     8    1
    34    28    23    1
    35     8     3    1
    36    35    30   ar
    37    18     9   ar
    38    18    13   ar
    39    21    22    1
@<TRIPOS>MOLECULE
*****
 35 39 0 0 0
SMALL
GASTEIGER

@<TRIPOS>ATOM
      1 O          57.0212   90.7703    5.8720 O.2     1  UNL1       -0.2749
      2 C          58.5011   90.5301    5.9169 C.2     1  UNL1        0.2252
      3 N          59.3913   91.1367    4.8731 N.am    1  UNL1       -0.2794
      4 C          58.8016   91.9835    3.7845 C.3     1  UNL1        0.0953
      5 C          59.6918   92.5902    2.7407 C.3     1  UNL1        0.0442
      6 C          61.1718   92.3500    2.7855 C.3     1  UNL1        0.0933
      7 C          61.7615   91.5032    3.8741 C.3     1  UNL1        0.0442
      8 C          60.8713   90.8966    4.9179 C.3     1  UNL1        0.0953
      9 N          62.0620   92.9566    1.7417 N.ar    1  UNL1       -0.2817
     10 C          63.4432   93.4968    1.9666 C.ar    1  UNL1        0.3316
     11 O          64.1767   93.5252    3.2747 O.2     1  UNL1       -0.2463
     12 N          63.9621   94.0036    0.6536 N.ar    1  UNL1       -0.2774
     13 C          62.9016   93.7767   -0.3827 C.ar    1  UNL1        0.0798
     14 C          62.8536   94.0756   -1.8518 C.ar    1  UNL1        0.0188
     15 C          61.6313   93.7275   -2.6484 C.ar    1  UNL1        0.0016
     16 C          60.4569   93.0804   -1.9759 C.ar    1  UNL1        0.0016
     17 C          60.5050   92.7814   -0.5068 C.ar    1  UNL1        0.0188
     18 C          61.7273   93.1296    0.2898 C.ar    1  UNL1        0.0796
     19 C          65.3056   94.6278    0.4182 C.3     1  UNL1        0.1422
     20 C          65.4060   96.0846    0.0748 C.3     1  UNL1        0.1617
     21 O          66.4234   96.5514   -0.9237 O.3     1  UNL1       -0.3799
     22 H          67.3145   96.4064   -0.5692 H       1  UNL1        0.2105
     23 C          59.0908   89.6833    7.0055 C.3     1  UNL1        0.0795
     24 C          59.9927   90.3024    8.0319 C.3     1  UNL1        0.0264
     25 C          60.5824   89.4556    9.1205 C.3     1  UNL1        0.0729
     26 N          60.2703   87.9897    9.1828 N.3     1  UNL1       -0.2689
     27 C          59.3684   87.3706    8.1564 C.3     1  UNL1        0.0729
     28 C          58.7787   88.2174    7.0678 C.3     1  UNL1        0.0264
     29 C          60.8601   87.1429   10.2714 C.3     1  UNL1        0.0992
     30 C          61.8292   86.0502    9.9299 C.ar    1  UNL1       -0.0031
     31 C          62.3098   85.8882    8.5183 C.ar    1  UNL1        0.0178
     32 C          63.2789   84.7954    8.1766 C.ar    1  UNL1        0.0986
     33 N          63.7673   83.8646    9.2467 N.ar    1  UNL1       -0.2423
     34 C          63.2867   84.0266   10.6583 C.ar    1  UNL1        0.0986
     35 C          62.3176   85.1194   11.0000 C.ar    1  UNL1        0.0178
@<TRIPOS>BOND
     1     1     2    2
     2     2    23    1
     3    23    24    1
     4    24    25    1
     5    25    26    1
     6    26    29    1
     7    29    30    1
     8    30    31   ar
     9    31    32   ar
    10    32    33   ar
    11    33    34   ar
    12    34    35   ar
    13    26    27    1
    14    27    28    1
    15     2     3   am
    16     3     4    1
    17     4     5    1
    18     5     6    1
    19     6     9    1
    20     9    10   ar
    21    10    11    2
    22    10    12   ar
    23    12    19    1
    24    19    20    1
    25    20    21    1
    26    12    13   ar
    27    13    14   ar
    28    14    15   ar
    29    15    16   ar
    30    16    17   ar
    31    17    18   ar
    32     6     7    1
    33     7     8    1
    34    28    23    1
    35     8     3    1
    36    35    30   ar
    37    18     9   ar
    38    18    13   ar
    39    21    22    1
@<TRIPOS>MOLECULE
*****
 35 39 0 0 0
SMALL
GASTEIGER

@<TRIPOS>ATOM
      1 O          57.3045   91.0006    5.9005 O.2     1  UNL1       -0.2749
      2 C          58.7555   90.6427    5.7716 C.2     1  UNL1        0.2252
      3 N          59.5934   91.2813    4.7038 N.am    1  UNL1       -0.2794
      4 C          58.9804   92.2777    3.7651 C.3     1  UNL1        0.0953
      5 C          59.8183   92.9164    2.6974 C.3     1  UNL1        0.0442
      6 C          61.2694   92.5585    2.5684 C.3     1  UNL1        0.0933
      7 C          61.8823   91.5621    3.5071 C.3     1  UNL1        0.0442
      8 C          61.0444   90.9235    4.5749 C.3     1  UNL1        0.0953
      9 N          62.1073   93.1971    1.5006 N.ar    1  UNL1       -0.2817
     10 C          61.9312   93.0251    0.0210 C.ar    1  UNL1        0.3316
     11 O          60.8864   92.1842   -0.6508 O.2     1  UNL1       -0.2463
     12 N          62.9835   93.8415   -0.6690 N.ar    1  UNL1       -0.2774
     13 C          63.8099   94.5182    0.3843 C.ar    1  UNL1        0.0798
     14 C          64.9856   95.4455    0.2955 C.ar    1  UNL1        0.0188
     15 C          65.6196   95.9745    1.5477 C.ar    1  UNL1        0.0016
     16 C          65.0781   95.5762    2.8886 C.ar    1  UNL1        0.0016
     17 C          63.9024   94.6489    2.9774 C.ar    1  UNL1        0.0188
     18 C          63.2684   94.1199    1.7252 C.ar    1  UNL1        0.0796
     19 C          63.1758   93.9605   -2.1518 C.3     1  UNL1        0.1422
     20 C          63.3001   92.7250   -2.9935 C.3     1  UNL1        0.1617
     21 O          64.6411   92.0816   -3.1876 O.3     1  UNL1       -0.3799
     22 H          65.2168   92.6790   -3.6901 H       1  UNL1        0.2105
     23 C          59.3685   89.6462    6.7103 C.3     1  UNL1        0.0795
     24 C          60.0183   90.1125    7.9793 C.3     1  UNL1        0.0264
     25 C          60.6313   89.1161    8.9181 C.3     1  UNL1        0.0729
     26 N          60.5946   87.6533    8.5878 N.3     1  UNL1       -0.2689
     27 C          59.9447   87.1870    7.3188 C.3     1  UNL1        0.0729
     28 C          59.3317   88.1835    6.3800 C.3     1  UNL1        0.0264
     29 C          61.2076   86.6569    9.5266 C.3     1  UNL1        0.0992
     30 C          62.0056   87.1294   10.7055 C.ar    1  UNL1       -0.0031
     31 C          62.5134   86.1403   11.7124 C.ar    1  UNL1        0.0178
     32 C          63.3114   86.6127   12.8913 C.ar    1  UNL1        0.0986
     33 N          63.6016   88.0743   13.0634 N.ar    1  UNL1       -0.2423
     34 C          63.0938   89.0634   12.0566 C.ar    1  UNL1        0.0986
     35 C          62.2958   88.5910   10.8776 C.ar    1  UNL1        0.0178
@<TRIPOS>BOND
     1     1     2    2
     2     2    23    1
     3    23    24    1
     4    24    25    1
     5    25    26    1
     6    26    29    1
     7    29    30    1
     8    30    31   ar
     9    31    32   ar
    10    32    33   ar
    11    33    34   ar
    12    34    35   ar
    13    26    27    1
    14    27    28    1
    15     2     3   am
    16     3     4    1
    17     4     5    1
    18     5     6    1
    19     6     9    1
    20     9    10   ar
    21    10    11    2
    22    10    12   ar
    23    12    19    1
    24    19    20    1
    25    20    21    1
    26    12    13   ar
    27    13    14   ar
    28    14    15   ar
    29    15    16   ar
    30    16    17   ar
    31    17    18   ar
    32     6     7    1
    33     7     8    1
    34    28    23    1
    35     8     3    1
    36    35    30   ar
    37    18     9   ar
    38    18    13   ar
    39    21    22    1
@<TRIPOS>MOLECULE
*****
 35 39 0 0 0
SMALL
GASTEIGER

@<TRIPOS>ATOM
      1 O          60.2476   90.3258   10.9530 O.2     1  UNL1       -0.2749
      2 C          61.6273   89.7991   11.2153 C.2     1  UNL1        0.2252
      3 N          61.8721   88.3195   11.2447 N.am    1  UNL1       -0.2794
      4 C          60.7372   87.3667   11.0119 C.3     1  UNL1        0.0953
      5 C          60.9820   85.8871   11.0414 C.3     1  UNL1        0.0442
      6 C          62.3618   85.3602   11.3037 C.3     1  UNL1        0.0933
      7 C          63.4966   86.3130   11.5365 C.3     1  UNL1        0.0442
      8 C          63.2518   87.7926   11.5070 C.3     1  UNL1        0.0953
      9 N          62.6066   83.8806   11.3331 N.ar    1  UNL1       -0.2817
     10 C          63.0433   83.0360   10.1730 C.ar    1  UNL1        0.3316
     11 O          63.3119   83.5226    8.7798 O.2     1  UNL1       -0.2463
     12 N          63.1642   81.6193   10.6508 N.ar    1  UNL1       -0.2774
     13 C          62.8023   81.5883   12.1061 C.ar    1  UNL1        0.0798
     14 C          62.7420   80.4681   13.1018 C.ar    1  UNL1        0.0188
     15 C          62.3370   80.7455   14.5192 C.ar    1  UNL1        0.0016
     16 C          61.9924   82.1432   14.9409 C.ar    1  UNL1        0.0016
     17 C          62.0527   83.2634   13.9452 C.ar    1  UNL1        0.0188
     18 C          62.4576   82.9860   12.5278 C.ar    1  UNL1        0.0796
     19 C          63.5750   80.4404    9.8192 C.3     1  UNL1        0.1422
     20 C          62.7823   79.1682    9.8782 C.3     1  UNL1        0.1617
     21 O          63.4840   77.8438    9.8186 O.3     1  UNL1       -0.3799
     22 H          63.8987   77.7365    8.9483 H       1  UNL1        0.2105
     23 C          62.7622   90.7518   11.4481 C.3     1  UNL1        0.0795
     24 C          63.2779   91.5942   10.3192 C.3     1  UNL1        0.0264
     25 C          64.4128   92.5469   10.5520 C.3     1  UNL1        0.0729
     26 N          65.0320   92.6573   11.9138 N.3     1  UNL1       -0.2689
     27 C          64.5163   91.8149   13.0428 C.3     1  UNL1        0.0729
     28 C          63.3814   90.8621   12.8099 C.3     1  UNL1        0.0264
     29 C          66.1669   93.6101   12.1466 C.3     1  UNL1        0.0992
     30 C          66.6415   94.4975   11.0343 C.ar    1  UNL1       -0.0031
     31 C          66.3348   95.9655   11.0634 C.ar    1  UNL1        0.0178
     32 C          66.8093   96.8530    9.9511 C.ar    1  UNL1        0.0986
     33 N          67.5905   96.2724    8.8097 N.ar    1  UNL1       -0.2423
     34 C          67.8972   94.8044    8.7807 C.ar    1  UNL1        0.0986
     35 C          67.4227   93.9169    9.8929 C.ar    1  UNL1        0.0178
@<TRIPOS>BOND
     1     1     2    2
     2     2    23    1
     3    23    24    1
     4    24    25    1
     5    25    26    1
     6    26    29    1
     7    29    30    1
     8    30    31   ar
     9    31    32   ar
    10    32    33   ar
    11    33    34   ar
    12    34    35   ar
    13    26    27    1
    14    27    28    1
    15     2     3   am
    16     3     4    1
    17     4     5    1
    18     5     6    1
    19     6     9    1
    20     9    10   ar
    21    10    11    2
    22    10    12   ar
    23    12    19    1
    24    19    20    1
    25    20    21    1
    26    12    13   ar
    27    13    14   ar
    28    14    15   ar
    29    15    16   ar
    30    16    17   ar
    31    17    18   ar
    32     6     7    1
    33     7     8    1
    34    28    23    1
    35     8     3    1
    36    35    30   ar
    37    18     9   ar
    38    18    13   ar
    39    21    22    1
@<TRIPOS>MOLECULE
*****
 35 39 0 0 0
SMALL
GASTEIGER

@<TRIPOS>ATOM
      1 O          57.1146   90.8210    5.7922 O.2     1  UNL1       -0.2749
      2 C          58.5980   90.6010    5.8227 C.2     1  UNL1        0.2252
      3 N          59.4689   91.2137    4.7662 N.am    1  UNL1       -0.2794
      4 C          58.8563   92.0463    3.6793 C.3     1  UNL1        0.0953
      5 C          59.7271   92.6590    2.6227 C.3     1  UNL1        0.0442
      6 C          61.2107   92.4390    2.6531 C.3     1  UNL1        0.0933
      7 C          61.8232   91.6064    3.7400 C.3     1  UNL1        0.0442
      8 C          60.9523   90.9937    4.7966 C.3     1  UNL1        0.0953
      9 N          62.0815   93.0518    1.5966 N.ar    1  UNL1       -0.2817
     10 C          61.9606   92.8320    0.1177 C.ar    1  UNL1        0.3316
     11 O          60.9475   91.9611   -0.5643 O.2     1  UNL1       -0.2463
     12 N          63.0305   93.6363   -0.5593 N.ar    1  UNL1       -0.2774
     13 C          63.8127   94.3530    0.5011 C.ar    1  UNL1        0.0798
     14 C          64.9833   95.2879    0.4255 C.ar    1  UNL1        0.0188
     15 C          65.5673   95.8615    1.6824 C.ar    1  UNL1        0.0016
     16 C          64.9808   95.5002    3.0148 C.ar    1  UNL1        0.0016
     17 C          63.8102   94.5654    3.0904 C.ar    1  UNL1        0.0188
     18 C          63.2262   93.9917    1.8335 C.ar    1  UNL1        0.0796
     19 C          63.2753   93.7107   -2.0374 C.3     1  UNL1        0.1422
     20 C          62.2459   94.3267   -2.9380 C.3     1  UNL1        0.1617
     21 O          60.9479   93.6179   -3.1884 O.3     1  UNL1       -0.3799
     22 H          61.1171   92.7954   -3.6740 H       1  UNL1        0.2105
     23 C          59.2106   89.7683    6.9096 C.3     1  UNL1        0.0795
     24 C          58.9569   88.2907    6.9556 C.3     1  UNL1        0.0264
     25 C          59.5695   87.4580    8.0426 C.3     1  UNL1        0.0729
     26 N          60.4359   88.1031    9.0834 N.3     1  UNL1       -0.2689
     27 C          60.6896   89.5808    9.0374 C.3     1  UNL1        0.0729
     28 C          60.0770   90.4134    7.9505 C.3     1  UNL1        0.0264
     29 C          61.0485   87.2704   10.1704 C.3     1  UNL1        0.0992
     30 C          61.9189   86.1005    9.8187 C.ar    1  UNL1       -0.0031
     31 C          62.3616   85.8948    8.4003 C.ar    1  UNL1        0.0178
     32 C          63.2321   84.7249    8.0486 C.ar    1  UNL1        0.0986
     33 N          63.6597   83.7608    9.1151 N.ar    1  UNL1       -0.2423
     34 C          63.2170   83.9666   10.5335 C.ar    1  UNL1        0.0986
     35 C          62.3466   85.1364   10.8852 C.ar    1  UNL1        0.0178
@<TRIPOS>BOND
     1     1     2    2
     2     2    23    1
     3    23    24    1
     4    24    25    1
     5    25    26    1
     6    26    29    1
     7    29    30    1
     8    30    31   ar
     9    31    32   ar
    10    32    33   ar
    11    33    34   ar
    12    34    35   ar
    13    26    27    1
    14    27    28    1
    15     2     3   am
    16     3     4    1
    17     4     5    1
    18     5     6    1
    19     6     9    1
    20     9    10   ar
    21    10    11    2
    22    10    12   ar
    23    12    19    1
    24    19    20    1
    25    20    21    1
    26    12    13   ar
    27    13    14   ar
    28    14    15   ar
    29    15    16   ar
    30    16    17   ar
    31    17    18   ar
    32     6     7    1
    33     7     8    1
    34    28    23    1
    35     8     3    1
    36    35    30   ar
    37    18     9   ar
    38    18    13   ar
    39    21    22    1
