@<TRIPOS>MOLECULE
*****
 33 36 0 0 0
SMALL
GASTEIGER

@<TRIPOS>ATOM
      1 N          63.0217   90.6605   11.6458 N.am    1  UNL1       -0.2438
      2 C          63.6178   91.2349   10.3950 C.3     1  UNL1        0.1009
      3 C          64.7483   92.2166   10.4852 C.3     1  UNL1        0.0661
      4 C          65.2827   92.6239   11.8262 C.3     1  UNL1        0.1578
      5 O          64.6866   92.0496   13.0772 O.3     1  UNL1       -0.4375
      6 C          63.5560   91.0678   12.9870 C.2     1  UNL1        0.4051
      7 O          62.9599   90.4935   14.2378 O.2     1  UNL1       -0.2262
      8 C          66.1717   93.4380   10.9334 C.ar    1  UNL1        0.0137
      9 C          67.2198   92.7617   10.1004 C.ar    1  UNL1       -0.0010
     10 C          68.1088   93.5757    9.2075 C.ar    1  UNL1       -0.0002
     11 C          67.9495   95.0660    9.1478 C.ar    1  UNL1       -0.0000
     12 C          66.9014   95.7424    9.9809 C.ar    1  UNL1       -0.0002
     13 C          66.0124   94.9283   10.8737 C.ar    1  UNL1       -0.0010
     14 C          60.5046   90.1582   11.2434 C.3     1  UNL1        0.0265
     15 C          61.8912   89.6788   11.5556 C.3     1  UNL1        0.1011
     16 C          62.1473   88.2175   11.7777 C.ar    1  UNL1       -0.0042
     17 C          63.2198   87.7804   12.7309 C.ar    1  UNL1       -0.0027
     18 C          63.4758   86.3192   12.9529 C.ar    1  UNL1       -0.0002
     19 C          62.6593   85.2951   12.2218 C.ar    1  UNL1        0.0016
     20 C          61.5868   85.7322   11.2686 C.ar    1  UNL1       -0.0002
     21 C          61.3307   87.1934   11.0466 C.ar    1  UNL1       -0.0027
     22 C          62.9154   83.8339   12.4438 C.ar    1  UNL1        0.0214
     23 C          63.2657   83.3336   13.8138 C.ar    1  UNL1        0.0990
     24 N          63.5218   81.8723   14.0359 N.ar    1  UNL1       -0.2400
     25 C          63.4276   80.9115   12.8879 C.ar    1  UNL1        0.1284
     26 C          63.0773   81.4119   11.5178 C.ar    1  UNL1        0.1592
     27 F          62.9832   80.4510   10.3699 F       1  UNL1       -0.2025
     28 C          62.8213   82.8730   11.2958 C.ar    1  UNL1        0.0328
     29 C          66.1258   93.3140   12.8573 C.3     1  UNL1        0.0471
     30 C          66.5941   92.5629   14.0682 C.3     1  UNL1        0.0357
     31 C          68.0408   92.1919   14.2077 C.3     1  UNL1        0.1373
     32 O          68.7977   91.6665   13.0240 O.3     1  UNL1       -0.3820
     33 H          68.4338   90.8059   12.7635 H       1  UNL1        0.2104
@<TRIPOS>BOND
     1    15    14    1
     2    15    16    1
     3    16    17   ar
     4    17    18   ar
     5    18    19   ar
     6    19    22    1
     7    22    23   ar
     8    23    24   ar
     9    24    25   ar
    10    25    26   ar
    11    26    27    1
    12    26    28   ar
    13    19    20   ar
    14    20    21   ar
    15    15     1    1
    16     1     2    1
    17     2     3    1
    18     3     4    1
    19     4    29    1
    20    29    30    1
    21    30    31    1
    22    31    32    1
    23     4     8    1
    24     8     9   ar
    25     9    10   ar
    26    10    11   ar
    27    11    12   ar
    28    12    13   ar
    29     4     5    1
    30     5     6    1
    31     6     7    2
    32    21    16   ar
    33     6     1   am
    34    28    22   ar
    35    13     8   ar
    36    32    33    1
@<TRIPOS>MOLECULE
*****
 33 36 0 0 0
SMALL
GASTEIGER

@<TRIPOS>ATOM
      1 N          62.9592   90.6433   11.7468 N.am    1  UNL1       -0.2438
      2 C          63.5339   91.2231   10.4885 C.3     1  UNL1        0.1009
      3 C          64.6902   92.1758   10.5616 C.3     1  UNL1        0.0661
      4 C          65.2717   92.5488   11.8930 C.3     1  UNL1        0.1578
      5 O          64.6970   91.9690   13.1514 O.3     1  UNL1       -0.4375
      6 C          63.5407   91.0162   13.0783 C.2     1  UNL1        0.4051
      7 O          62.9660   90.4365   14.3367 O.2     1  UNL1       -0.2262
      8 C          66.1550   93.3554   10.9878 C.ar    1  UNL1        0.0137
      9 C          67.1963   92.6720   10.1520 C.ar    1  UNL1       -0.0010
     10 C          68.0795   93.4786    9.2468 C.ar    1  UNL1       -0.0002
     11 C          67.9214   94.9686    9.1775 C.ar    1  UNL1       -0.0000
     12 C          66.8800   95.6520   10.0133 C.ar    1  UNL1       -0.0002
     13 C          65.9968   94.8454   10.9185 C.ar    1  UNL1       -0.0010
     14 C          60.3999   90.2173   11.6112 C.3     1  UNL1        0.0265
     15 C          61.8029   89.6906   11.6738 C.3     1  UNL1        0.1011
     16 C          62.0498   88.2110   11.6633 C.ar    1  UNL1       -0.0042
     17 C          61.2429   87.3224   10.7638 C.ar    1  UNL1       -0.0027
     18 C          61.4897   85.8429   10.7533 C.ar    1  UNL1       -0.0002
     19 C          62.5435   85.2520   11.6425 C.ar    1  UNL1        0.0016
     20 C          63.3503   86.1407   12.5420 C.ar    1  UNL1       -0.0002
     21 C          63.1035   87.6201   12.5525 C.ar    1  UNL1       -0.0027
     22 C          62.7903   83.7725   11.6320 C.ar    1  UNL1        0.0214
     23 C          63.4347   83.1280   10.4406 C.ar    1  UNL1        0.0990
     24 N          63.6815   81.6484   10.4301 N.ar    1  UNL1       -0.2400
     25 C          63.2840   80.8134   11.6111 C.ar    1  UNL1        0.1284
     26 C          62.6396   81.4579   12.8025 C.ar    1  UNL1        0.1592
     27 F          62.2421   80.6229   13.9835 F       1  UNL1       -0.2025
     28 C          62.3928   82.9374   12.8130 C.ar    1  UNL1        0.0328
     29 C          66.1600   93.2019   12.9101 C.3     1  UNL1        0.0471
     30 C          66.9548   92.3593   13.8630 C.3     1  UNL1        0.0357
     31 C          66.8443   92.5913   15.3409 C.3     1  UNL1        0.1373
     32 O          65.5128   92.9132   15.9520 O.3     1  UNL1       -0.3820
     33 H          65.2089   93.7759   15.6290 H       1  UNL1        0.2104
@<TRIPOS>BOND
     1    15    14    1
     2    15    16    1
     3    16    17   ar
     4    17    18   ar
     5    18    19   ar
     6    19    22    1
     7    22    23   ar
     8    23    24   ar
     9    24    25   ar
    10    25    26   ar
    11    26    27    1
    12    26    28   ar
    13    19    20   ar
    14    20    21   ar
    15    15     1    1
    16     1     2    1
    17     2     3    1
    18     3     4    1
    19     4    29    1
    20    29    30    1
    21    30    31    1
    22    31    32    1
    23     4     8    1
    24     8     9   ar
    25     9    10   ar
    26    10    11   ar
    27    11    12   ar
    28    12    13   ar
    29     4     5    1
    30     5     6    1
    31     6     7    2
    32    21    16   ar
    33     6     1   am
    34    28    22   ar
    35    13     8   ar
    36    32    33    1
@<TRIPOS>MOLECULE
*****
 33 36 0 0 0
SMALL
GASTEIGER

@<TRIPOS>ATOM
      1 N          63.3216   90.2453   12.0728 N.am    1  UNL1       -0.2438
      2 C          64.0076   90.1164   13.4005 C.3     1  UNL1        0.1009
      3 C          65.1824   90.9905   13.7257 C.3     1  UNL1        0.0661
      4 C          65.6713   91.9935   12.7232 C.3     1  UNL1        0.1578
      5 O          64.9853   92.1225   11.3955 O.3     1  UNL1       -0.4375
      6 C          63.8105   91.2484   11.0703 C.2     1  UNL1        0.4051
      7 O          63.1245   91.3773    9.7426 O.2     1  UNL1       -0.2262
      8 C          66.6444   92.2430   13.8372 C.ar    1  UNL1        0.0137
      9 C          66.1499   92.7067   15.1752 C.ar    1  UNL1       -0.0010
     10 C          67.1231   92.9562   16.2892 C.ar    1  UNL1       -0.0002
     11 C          68.5907   92.7421   16.0649 C.ar    1  UNL1       -0.0000
     12 C          69.0852   92.2784   14.7268 C.ar    1  UNL1       -0.0002
     13 C          68.1120   92.0289   13.6129 C.ar    1  UNL1       -0.0010
     14 C          60.8130   89.9885   11.4476 C.3     1  UNL1        0.0265
     15 C          62.1468   89.3712   11.7476 C.3     1  UNL1        0.1011
     16 C          62.3058   87.8799   11.7225 C.ar    1  UNL1       -0.0042
     17 C          63.1638   87.1997   12.7477 C.ar    1  UNL1       -0.0027
     18 C          63.3228   85.7084   12.7224 C.ar    1  UNL1       -0.0002
     19 C          62.6237   84.8972   11.6720 C.ar    1  UNL1        0.0016
     20 C          61.7657   85.5774   10.6468 C.ar    1  UNL1       -0.0002
     21 C          61.6067   87.0687   10.6720 C.ar    1  UNL1       -0.0027
     22 C          62.7827   83.4059   11.6469 C.ar    1  UNL1        0.0214
     23 C          63.3509   82.7326   10.4329 C.ar    1  UNL1        0.0990
     24 N          63.5098   81.2412   10.4077 N.ar    1  UNL1       -0.2400
     25 C          63.1007   80.4232   11.5966 C.ar    1  UNL1        0.1284
     26 C          62.5325   81.0965   12.8106 C.ar    1  UNL1        0.1592
     27 F          62.1234   80.2785   13.9995 F       1  UNL1       -0.2025
     28 C          62.3736   82.5878   12.8357 C.ar    1  UNL1        0.0328
     29 C          66.4981   93.0832   12.1076 C.3     1  UNL1        0.0471
     30 C          66.7526   93.0873   10.6294 C.3     1  UNL1        0.0357
     31 C          68.0105   92.4794   10.0832 C.3     1  UNL1        0.1373
     32 O          69.1931   93.3502    9.7780 O.3     1  UNL1       -0.3820
     33 H          68.9730   93.9506    9.0487 H       1  UNL1        0.2104
@<TRIPOS>BOND
     1    15    14    1
     2    15    16    1
     3    16    17   ar
     4    17    18   ar
     5    18    19   ar
     6    19    22    1
     7    22    23   ar
     8    23    24   ar
     9    24    25   ar
    10    25    26   ar
    11    26    27    1
    12    26    28   ar
    13    19    20   ar
    14    20    21   ar
    15    15     1    1
    16     1     2    1
    17     2     3    1
    18     3     4    1
    19     4    29    1
    20    29    30    1
    21    30    31    1
    22    31    32    1
    23     4     8    1
    24     8     9   ar
    25     9    10   ar
    26    10    11   ar
    27    11    12   ar
    28    12    13   ar
    29     4     5    1
    30     5     6    1
    31     6     7    2
    32    21    16   ar
    33     6     1   am
    34    28    22   ar
    35    13     8   ar
    36    32    33    1
@<TRIPOS>MOLECULE
*****
 33 36 0 0 0
SMALL
GASTEIGER

@<TRIPOS>ATOM
      1 N          63.6557   88.2218   13.7357 N.am    1  UNL1       -0.2438
      2 C          64.1717   86.9716   14.3842 C.3     1  UNL1        0.1009
      3 C          63.8685   85.6329   13.7794 C.3     1  UNL1        0.0661
      4 C          63.0493   85.5444   12.5260 C.3     1  UNL1        0.1578
      5 O          62.5333   86.7947   11.8773 O.3     1  UNL1       -0.4375
      6 C          62.8365   88.1334   12.4822 C.2     1  UNL1        0.4051
      7 O          62.3205   89.3836   11.8337 O.2     1  UNL1       -0.2262
      8 C          63.3125   84.0877   12.7685 C.ar    1  UNL1        0.0137
      9 C          62.5688   83.3610   13.8496 C.ar    1  UNL1       -0.0010
     10 C          62.8321   81.9043   14.0921 C.ar    1  UNL1       -0.0002
     11 C          63.8390   81.1744   13.2534 C.ar    1  UNL1       -0.0000
     12 C          64.5826   81.9010   12.1723 C.ar    1  UNL1       -0.0002
     13 C          64.3194   83.3577   11.9298 C.ar    1  UNL1       -0.0010
     14 C          63.6805   89.8074   15.7936 C.3     1  UNL1        0.0265
     15 C          63.9589   89.5606   14.3406 C.3     1  UNL1        0.1011
     16 C          64.5407   90.6524   13.4923 C.ar    1  UNL1       -0.0042
     17 C          63.8565   91.0597   12.2210 C.ar    1  UNL1       -0.0027
     18 C          64.4382   92.1515   11.3728 C.ar    1  UNL1       -0.0002
     19 C          65.7041   92.8361   11.7959 C.ar    1  UNL1        0.0016
     20 C          66.3882   92.4288   13.0671 C.ar    1  UNL1       -0.0002
     21 C          65.8065   91.3370   13.9153 C.ar    1  UNL1       -0.0027
     22 C          66.2858   93.9279   10.9476 C.ar    1  UNL1        0.0214
     23 C          66.2613   95.3474   11.4317 C.ar    1  UNL1        0.0990
     24 N          66.8430   96.4393   10.5834 N.ar    1  UNL1       -0.2400
     25 C          67.4492   96.1116    9.2510 C.ar    1  UNL1        0.1284
     26 C          67.4736   94.6920    8.7669 C.ar    1  UNL1        0.1592
     27 F          68.0797   94.3643    7.4346 F       1  UNL1       -0.2025
     28 C          66.8919   93.6002    9.6152 C.ar    1  UNL1        0.0328
     29 C          62.3215   84.9500   11.3567 C.3     1  UNL1        0.0471
     30 C          62.3155   85.6618   10.0364 C.3     1  UNL1        0.0357
     31 C          63.0364   85.0697    8.8618 C.3     1  UNL1        0.1373
     32 O          62.4482   85.1819    7.4865 O.3     1  UNL1       -0.3820
     33 H          61.6240   84.6722    7.4449 H       1  UNL1        0.2104
@<TRIPOS>BOND
     1    15    14    1
     2    15    16    1
     3    16    17   ar
     4    17    18   ar
     5    18    19   ar
     6    19    22    1
     7    22    23   ar
     8    23    24   ar
     9    24    25   ar
    10    25    26   ar
    11    26    27    1
    12    26    28   ar
    13    19    20   ar
    14    20    21   ar
    15    15     1    1
    16     1     2    1
    17     2     3    1
    18     3     4    1
    19     4    29    1
    20    29    30    1
    21    30    31    1
    22    31    32    1
    23     4     8    1
    24     8     9   ar
    25     9    10   ar
    26    10    11   ar
    27    11    12   ar
    28    12    13   ar
    29     4     5    1
    30     5     6    1
    31     6     7    2
    32    21    16   ar
    33     6     1   am
    34    28    22   ar
    35    13     8   ar
    36    32    33    1
@<TRIPOS>MOLECULE
*****
 33 36 0 0 0
SMALL
GASTEIGER

@<TRIPOS>ATOM
      1 N          62.1855   88.0436   11.3765 N.am    1  UNL1       -0.2438
      2 C          62.5773   86.9148   12.2833 C.3     1  UNL1        0.1009
      3 C          62.7336   85.5289   11.7311 C.3     1  UNL1        0.0661
      4 C          62.4982   85.2719   10.2722 C.3     1  UNL1        0.1578
      5 O          62.1064   86.4007    9.3653 O.3     1  UNL1       -0.4375
      6 C          61.9501   87.7866    9.9175 C.2     1  UNL1        0.4051
      7 O          61.5583   88.9155    9.0108 O.2     1  UNL1       -0.2262
      8 C          62.8507   83.8866   10.7271 C.ar    1  UNL1        0.0137
      9 C          62.2095   83.3152   11.9568 C.ar    1  UNL1       -0.0010
     10 C          62.5620   81.9299   12.4117 C.ar    1  UNL1       -0.0002
     11 C          63.5558   81.1163   11.6369 C.ar    1  UNL1       -0.0000
     12 C          64.1971   81.6878   10.4072 C.ar    1  UNL1       -0.0002
     13 C          63.8445   83.0730    9.9523 C.ar    1  UNL1       -0.0010
     14 C          60.7094   90.1344   11.8232 C.3     1  UNL1        0.0265
     15 C          62.0292   89.4295   11.9287 C.3     1  UNL1        0.1011
     16 C          63.1927   90.1104   12.5865 C.ar    1  UNL1       -0.0042
     17 C          63.8491   91.2836   11.9211 C.ar    1  UNL1       -0.0027
     18 C          65.0126   91.9645   12.5788 C.ar    1  UNL1       -0.0002
     19 C          65.5197   91.4722   13.9019 C.ar    1  UNL1        0.0016
     20 C          64.8633   90.2990   14.5673 C.ar    1  UNL1       -0.0002
     21 C          63.6998   89.6182   13.9096 C.ar    1  UNL1       -0.0027
     22 C          66.6832   92.1532   14.5596 C.ar    1  UNL1        0.0214
     23 C          66.4698   92.9766   15.7951 C.ar    1  UNL1        0.0990
     24 N          67.6334   93.6576   16.4528 N.ar    1  UNL1       -0.2400
     25 C          69.0103   93.5150   15.8750 C.ar    1  UNL1        0.1284
     26 C          69.2236   92.6915   14.6395 C.ar    1  UNL1        0.1592
     27 F          70.6005   92.5490   14.0617 F       1  UNL1       -0.2025
     28 C          68.0601   92.0106   13.9819 C.ar    1  UNL1        0.0328
     29 C          62.3852   84.5338    8.9712 C.3     1  UNL1        0.0471
     30 C          62.3895   85.2910    7.6764 C.3     1  UNL1        0.0357
     31 C          62.2444   84.5558    6.3770 C.3     1  UNL1        0.1373
     32 O          60.8834   84.1558    5.8896 O.3     1  UNL1       -0.3820
     33 H          60.5049   83.4966    6.4922 H       1  UNL1        0.2104
@<TRIPOS>BOND
     1    15    14    1
     2    15    16    1
     3    16    17   ar
     4    17    18   ar
     5    18    19   ar
     6    19    22    1
     7    22    23   ar
     8    23    24   ar
     9    24    25   ar
    10    25    26   ar
    11    26    27    1
    12    26    28   ar
    13    19    20   ar
    14    20    21   ar
    15    15     1    1
    16     1     2    1
    17     2     3    1
    18     3     4    1
    19     4    29    1
    20    29    30    1
    21    30    31    1
    22    31    32    1
    23     4     8    1
    24     8     9   ar
    25     9    10   ar
    26    10    11   ar
    27    11    12   ar
    28    12    13   ar
    29     4     5    1
    30     5     6    1
    31     6     7    2
    32    21    16   ar
    33     6     1   am
    34    28    22   ar
    35    13     8   ar
    36    32    33    1
@<TRIPOS>MOLECULE
*****
 33 36 0 0 0
SMALL
GASTEIGER

@<TRIPOS>ATOM
      1 N          62.0375   88.2572   11.1535 N.am    1  UNL1       -0.2438
      2 C          61.4876   88.2198    9.7585 C.3     1  UNL1        0.1009
      3 C          61.6788   86.9981    8.9094 C.3     1  UNL1        0.0661
      4 C          62.4200   85.8138    9.4553 C.3     1  UNL1        0.1578
      5 O          62.9699   85.8512   10.8504 O.3     1  UNL1       -0.4375
      6 C          62.7787   87.0728   11.6995 C.2     1  UNL1        0.4051
      7 O          63.3286   87.1102   13.0945 O.2     1  UNL1       -0.2262
      8 C          62.0873   85.3036    8.0845 C.ar    1  UNL1        0.0137
      9 C          63.1683   84.7371    7.2124 C.ar    1  UNL1       -0.0010
     10 C          62.8356   84.2268    5.8416 C.ar    1  UNL1       -0.0002
     11 C          61.4220   84.2831    5.3431 C.ar    1  UNL1       -0.0000
     12 C          60.3411   84.8496    6.2152 C.ar    1  UNL1       -0.0002
     13 C          60.6737   85.3598    7.5860 C.ar    1  UNL1       -0.0010
     14 C          60.4709   90.0406   12.2095 C.3     1  UNL1        0.0265
     15 C          61.8463   89.4789   12.0026 C.3     1  UNL1        0.1011
     16 C          63.0305   90.1388   12.6447 C.ar    1  UNL1       -0.0042
     17 C          63.3722   89.8395   14.0742 C.ar    1  UNL1       -0.0027
     18 C          64.5563   90.4995   14.7162 C.ar    1  UNL1       -0.0002
     19 C          65.3987   91.4587   13.9287 C.ar    1  UNL1        0.0016
     20 C          65.0570   91.7580   12.4991 C.ar    1  UNL1       -0.0002
     21 C          63.8729   91.0981   11.8571 C.ar    1  UNL1       -0.0027
     22 C          66.5829   92.1187   14.5708 C.ar    1  UNL1        0.0214
     23 C          66.4013   92.9427   15.8109 C.ar    1  UNL1        0.0990
     24 N          67.5855   93.6027   16.4530 N.ar    1  UNL1       -0.2400
     25 C          68.9513   93.4386   15.8549 C.ar    1  UNL1        0.1284
     26 C          69.1329   92.6145   14.6147 C.ar    1  UNL1        0.1592
     27 F          70.4986   92.4504   14.0166 F       1  UNL1       -0.2025
     28 C          67.9487   91.9546   13.9727 C.ar    1  UNL1        0.0328
     29 C          63.0456   84.4523    9.5253 C.3     1  UNL1        0.0471
     30 C          63.1717   83.7517   10.8456 C.3     1  UNL1        0.0357
     31 C          63.9902   82.4995   10.9551 C.3     1  UNL1        0.1373
     32 O          65.1592   82.4473   11.8936 O.3     1  UNL1       -0.3820
     33 H          65.8446   83.0634   11.5910 H       1  UNL1        0.2104
@<TRIPOS>BOND
     1    15    14    1
     2    15    16    1
     3    16    17   ar
     4    17    18   ar
     5    18    19   ar
     6    19    22    1
     7    22    23   ar
     8    23    24   ar
     9    24    25   ar
    10    25    26   ar
    11    26    27    1
    12    26    28   ar
    13    19    20   ar
    14    20    21   ar
    15    15     1    1
    16     1     2    1
    17     2     3    1
    18     3     4    1
    19     4    29    1
    20    29    30    1
    21    30    31    1
    22    31    32    1
    23     4     8    1
    24     8     9   ar
    25     9    10   ar
    26    10    11   ar
    27    11    12   ar
    28    12    13   ar
    29     4     5    1
    30     5     6    1
    31     6     7    2
    32    21    16   ar
    33     6     1   am
    34    28    22   ar
    35    13     8   ar
    36    32    33    1
