@<TRIPOS>MOLECULE
*****
 31 34 0 0 0
SMALL
GASTEIGER

@<TRIPOS>ATOM
      1 C          62.9610   85.9334   12.5567 C.3     1  UNL1        0.1174
      2 C          63.5900   87.1833   13.0974 C.ar    1  UNL1        0.0961
      3 N          63.8286   88.6384   12.8226 N.ar    1  UNL1       -0.1681
      4 N          64.6077   89.2054   13.9722 N.ar    1  UNL1       -0.2287
      5 C          64.8505   88.1007   14.9574 C.ar    1  UNL1        0.0990
      6 C          64.2215   86.8509   14.4167 C.ar    1  UNL1        0.0337
      7 C          63.9829   85.3957   14.6914 C.3     1  UNL1        0.1235
      8 N          63.2038   84.8286   13.5418 N.pl3   1  UNL1       -0.2703
      9 C          65.0638   90.6275   14.1121 C.ar    1  UNL1        0.0841
     10 C          65.2006   91.2408   15.4742 C.ar    1  UNL1        0.0192
     11 C          65.6568   92.6629   15.6139 C.ar    1  UNL1        0.0029
     12 C          65.9762   93.4718   14.3918 C.ar    1  UNL1        0.0184
     13 C          65.8394   92.8585   13.0297 C.ar    1  UNL1        0.1072
     14 C          65.3832   91.4364   12.8899 C.ar    1  UNL1        0.0375
     15 S          66.1587   93.6673   11.8075 S.O2    1  UNL1        0.0105
     16 C          66.4781   94.4760   10.5852 C.3     1  UNL1        0.1816
     17 O          66.1776   94.9159   12.6385 O.2     1  UNL1       -0.1686
     18 O          66.1399   92.4186   10.9764 O.2     1  UNL1       -0.1686
     19 C          62.7477   83.4066   13.4020 C.ar    1  UNL1        0.2206
     20 N          61.9469   82.7647   14.4960 N.ar    1  UNL1       -0.2121
     21 C          61.4908   81.3427   14.3562 C.ar    1  UNL1        0.1033
     22 C          61.8354   80.5624   13.1222 C.ar    1  UNL1        0.0439
     23 C          62.6362   81.2042   12.0282 C.ar    1  UNL1        0.1570
     24 N          63.0923   82.6263   12.1681 N.ar    1  UNL1       -0.2096
     25 C          62.9807   80.4239   10.7944 C.3     1  UNL1        0.4350
     26 F          63.3254   79.6437    9.5606 F       1  UNL1       -0.1644
     27 F          62.5709   79.1554   11.4822 F       1  UNL1       -0.1644
     28 F          63.3906   81.6925   10.1067 F       1  UNL1       -0.1644
     29 C          60.9374   86.5611   11.0531 C.3     1  UNL1        0.0021
     30 C          62.2194   85.8100   11.2587 C.3     1  UNL1        0.0241
     31 C          62.7598   84.9356   10.1663 C.3     1  UNL1        0.0021
@<TRIPOS>BOND
     1    29    30    1
     2    30    31    1
     3     1    30    1
     4     1     2    1
     5     2     3   ar
     6     3     4   ar
     7     4     9    1
     8     9    10   ar
     9    10    11   ar
    10    11    12   ar
    11    12    13   ar
    12    13    15    1
    13    15    16    1
    14    15    17    2
    15    15    18    2
    16    13    14   ar
    17     4     5   ar
    18     5     6   ar
    19     6     7    1
    20     7     8    1
    21     8    19    1
    22    19    20   ar
    23    20    21   ar
    24    21    22   ar
    25    22    23   ar
    26    23    25    1
    27    25    26    1
    28    25    27    1
    29    25    28    1
    30    23    24   ar
    31     8     1    1
    32    24    19   ar
    33     6     2   ar
    34    14     9   ar
@<TRIPOS>MOLECULE
*****
 31 34 0 0 0
SMALL
GASTEIGER

@<TRIPOS>ATOM
      1 C          66.2680   92.1111   13.6007 C.3     1  UNL1        0.1174
      2 C          65.4706   90.9126   14.0222 C.ar    1  UNL1        0.0961
      3 N          65.4300   89.7568   14.9774 N.ar    1  UNL1       -0.1681
      4 N          64.1804   88.9734   14.7042 N.ar    1  UNL1       -0.2287
      5 C          63.4486   89.6450   13.5801 C.ar    1  UNL1        0.0990
      6 C          64.2461   90.8435   13.1586 C.ar    1  UNL1        0.0337
      7 C          64.2866   91.9993   12.2034 C.3     1  UNL1        0.1235
      8 N          65.5363   92.7828   12.4766 N.pl3   1  UNL1       -0.2703
      9 C          63.7397   87.7357   15.4280 C.ar    1  UNL1        0.0841
     10 C          63.0973   87.8454   16.7790 C.ar    1  UNL1        0.0192
     11 C          62.6567   86.6076   17.5027 C.ar    1  UNL1        0.0029
     12 C          62.8585   85.2601   16.8755 C.ar    1  UNL1        0.0184
     13 C          63.5010   85.1503   15.5245 C.ar    1  UNL1        0.1072
     14 C          63.9416   86.3881   14.8008 C.ar    1  UNL1        0.0375
     15 S          63.7029   83.8028   14.8972 S.O2    1  UNL1        0.0105
     16 C          63.9048   82.4554   14.2699 C.3     1  UNL1        0.1816
     17 O          62.3784   83.3524   15.4383 O.2     1  UNL1       -0.1686
     18 O          65.0274   84.2533   14.3561 O.2     1  UNL1       -0.1686
     19 C          65.9769   94.0205   11.7528 C.ar    1  UNL1        0.2206
     20 N          66.0533   95.3289   12.4824 N.ar    1  UNL1       -0.2121
     21 C          66.4938   96.5666   11.7587 C.ar    1  UNL1        0.1033
     22 C          66.8581   96.4960   10.3052 C.ar    1  UNL1        0.0439
     23 C          66.7818   95.1876    9.5756 C.ar    1  UNL1        0.1570
     24 N          66.3411   93.9499   10.2995 N.ar    1  UNL1       -0.2096
     25 C          67.1460   95.1170    8.1222 C.3     1  UNL1        0.4350
     26 F          67.5103   95.0464    6.6689 F       1  UNL1       -0.1644
     27 F          66.4872   96.4449    7.8926 F       1  UNL1       -0.1644
     28 F          67.8048   93.7891    8.3520 F       1  UNL1       -0.1644
     29 C          67.5740   93.5360   15.3367 C.3     1  UNL1        0.0021
     30 C          67.5688   92.5593   14.1983 C.3     1  UNL1        0.0241
     31 C          68.8643   92.0309   13.6574 C.3     1  UNL1        0.0021
@<TRIPOS>BOND
     1    29    30    1
     2    30    31    1
     3     1    30    1
     4     1     2    1
     5     2     3   ar
     6     3     4   ar
     7     4     9    1
     8     9    10   ar
     9    10    11   ar
    10    11    12   ar
    11    12    13   ar
    12    13    15    1
    13    15    16    1
    14    15    17    2
    15    15    18    2
    16    13    14   ar
    17     4     5   ar
    18     5     6   ar
    19     6     7    1
    20     7     8    1
    21     8    19    1
    22    19    20   ar
    23    20    21   ar
    24    21    22   ar
    25    22    23   ar
    26    23    25    1
    27    25    26    1
    28    25    27    1
    29    25    28    1
    30    23    24   ar
    31     8     1    1
    32    24    19   ar
    33     6     2   ar
    34    14     9   ar
@<TRIPOS>MOLECULE
*****
 31 34 0 0 0
SMALL
GASTEIGER

@<TRIPOS>ATOM
      1 C          63.8714   89.2575   13.6808 C.3     1  UNL1        0.1174
      2 C          63.1393   88.8832   12.4263 C.ar    1  UNL1        0.0961
      3 N          62.3321   87.8034   11.7685 N.ar    1  UNL1       -0.1681
      4 N          61.9548   88.2775   10.3964 N.ar    1  UNL1       -0.2287
      5 C          62.5287   89.6502   10.2060 C.ar    1  UNL1        0.0990
      6 C          63.2608   90.0246   11.4606 C.ar    1  UNL1        0.0337
      7 C          64.0679   91.1043   12.1183 C.3     1  UNL1        0.1235
      8 N          64.4453   90.6303   13.4906 N.pl3   1  UNL1       -0.2703
      9 C          61.1456   87.5130    9.3910 C.ar    1  UNL1        0.0841
     10 C          59.6673   87.7446    9.2858 C.ar    1  UNL1        0.0192
     11 C          58.8581   86.9801    8.2803 C.ar    1  UNL1        0.0029
     12 C          59.5272   85.9841    7.3801 C.ar    1  UNL1        0.0184
     13 C          61.0055   85.7526    7.4853 C.ar    1  UNL1        0.1072
     14 C          61.8146   86.5171    8.4908 C.ar    1  UNL1        0.0375
     15 S          61.6746   84.7566    6.5852 S.O2    1  UNL1        0.0105
     16 C          62.3437   83.7606    5.6850 C.3     1  UNL1        0.1816
     17 O          62.9949   85.0625    7.2280 O.2     1  UNL1       -0.1686
     18 O          60.3542   84.4507    5.9423 O.2     1  UNL1       -0.1686
     19 C          65.2545   91.3947   14.4959 C.ar    1  UNL1        0.2206
     20 N          64.6194   91.8593   15.7730 N.ar    1  UNL1       -0.2121
     21 C          65.4285   92.6237   16.7783 C.ar    1  UNL1        0.1033
     22 C          66.8730   92.9236   16.5066 C.ar    1  UNL1        0.0439
     23 C          67.5082   92.4591   15.2296 C.ar    1  UNL1        0.1570
     24 N          66.6989   91.6946   14.2243 N.ar    1  UNL1       -0.2096
     25 C          68.9526   92.7590   14.9580 C.3     1  UNL1        0.4350
     26 F          70.3969   93.0589   14.6864 F       1  UNL1       -0.1644
     27 F          69.0254   93.5566   16.2263 F       1  UNL1       -0.1644
     28 F          68.8796   91.9614   13.6897 F       1  UNL1       -0.1644
     29 C          63.4410   88.8837   16.2156 C.3     1  UNL1        0.0021
     30 C          64.0059   88.4082   14.9099 C.3     1  UNL1        0.0241
     31 C          64.7054   87.0835   14.8333 C.3     1  UNL1        0.0021
@<TRIPOS>BOND
     1    29    30    1
     2    30    31    1
     3     1    30    1
     4     1     2    1
     5     2     3   ar
     6     3     4   ar
     7     4     9    1
     8     9    10   ar
     9    10    11   ar
    10    11    12   ar
    11    12    13   ar
    12    13    15    1
    13    15    16    1
    14    15    17    2
    15    15    18    2
    16    13    14   ar
    17     4     5   ar
    18     5     6   ar
    19     6     7    1
    20     7     8    1
    21     8    19    1
    22    19    20   ar
    23    20    21   ar
    24    21    22   ar
    25    22    23   ar
    26    23    25    1
    27    25    26    1
    28    25    27    1
    29    25    28    1
    30    23    24   ar
    31     8     1    1
    32    24    19   ar
    33     6     2   ar
    34    14     9   ar
@<TRIPOS>MOLECULE
*****
 31 34 0 0 0
SMALL
GASTEIGER

@<TRIPOS>ATOM
      1 C          62.5407   87.3538   11.4536 C.3     1  UNL1        0.1174
      2 C          63.1341   88.4809   12.2458 C.ar    1  UNL1        0.0961
      3 N          63.9030   88.8173   13.4890 N.ar    1  UNL1       -0.1681
      4 N          64.0942   90.3046   13.5275 N.ar    1  UNL1       -0.2287
      5 C          63.4437   90.8873   12.3080 C.ar    1  UNL1        0.0990
      6 C          62.8503   89.7602   11.5158 C.ar    1  UNL1        0.0337
      7 C          62.0815   89.4238   10.2726 C.3     1  UNL1        0.1235
      8 N          61.8901   87.9364   10.2341 N.pl3   1  UNL1       -0.2703
      9 C          64.8104   91.0740   14.5975 C.ar    1  UNL1        0.0841
     10 C          64.0948   91.4414   15.8636 C.ar    1  UNL1        0.0192
     11 C          64.8111   92.2109   16.9336 C.ar    1  UNL1        0.0029
     12 C          66.2428   92.6130   16.7376 C.ar    1  UNL1        0.0184
     13 C          66.9584   92.2456   15.4716 C.ar    1  UNL1        0.1072
     14 C          66.2421   91.4761   14.4015 C.ar    1  UNL1        0.0375
     15 S          68.3901   92.6476   15.2755 S.O2    1  UNL1        0.0105
     16 C          69.8219   93.0496   15.0795 C.3     1  UNL1        0.1816
     17 O          68.0942   93.0063   13.8494 O.2     1  UNL1       -0.1686
     18 O          68.6861   92.2890   16.7017 O.2     1  UNL1       -0.1686
     19 C          61.1740   87.1670    9.1641 C.ar    1  UNL1        0.2206
     20 N          59.6920   87.3228    8.9925 N.ar    1  UNL1       -0.2121
     21 C          58.9758   86.5534    7.9224 C.ar    1  UNL1        0.1033
     22 C          59.7417   85.6281    7.0239 C.ar    1  UNL1        0.0439
     23 C          61.2237   85.4723    7.1954 C.ar    1  UNL1        0.1570
     24 N          61.9398   86.2418    8.2655 N.ar    1  UNL1       -0.2096
     25 C          61.9895   84.5470    6.2968 C.3     1  UNL1        0.4350
     26 F          62.7553   83.6217    5.3984 F       1  UNL1       -0.1644
     27 F          60.7116   84.1441    5.6226 F       1  UNL1       -0.1644
     28 F          63.2674   84.9500    6.9712 F       1  UNL1       -0.1644
     29 C          63.3737   85.4514   13.0147 C.3     1  UNL1        0.0021
     30 C          62.5894   85.8993   11.8171 C.3     1  UNL1        0.0241
     31 C          61.8537   84.8927   10.9831 C.3     1  UNL1        0.0021
@<TRIPOS>BOND
     1    29    30    1
     2    30    31    1
     3     1    30    1
     4     1     2    1
     5     2     3   ar
     6     3     4   ar
     7     4     9    1
     8     9    10   ar
     9    10    11   ar
    10    11    12   ar
    11    12    13   ar
    12    13    15    1
    13    15    16    1
    14    15    17    2
    15    15    18    2
    16    13    14   ar
    17     4     5   ar
    18     5     6   ar
    19     6     7    1
    20     7     8    1
    21     8    19    1
    22    19    20   ar
    23    20    21   ar
    24    21    22   ar
    25    22    23   ar
    26    23    25    1
    27    25    26    1
    28    25    27    1
    29    25    28    1
    30    23    24   ar
    31     8     1    1
    32    24    19   ar
    33     6     2   ar
    34    14     9   ar
@<TRIPOS>MOLECULE
*****
 31 34 0 0 0
SMALL
GASTEIGER

@<TRIPOS>ATOM
      1 C          63.8236   89.8351   13.5244 C.3     1  UNL1        0.1174
      2 C          63.0176   89.6411   12.2743 C.ar    1  UNL1        0.0961
      3 N          62.0323   88.7378   11.5937 N.ar    1  UNL1       -0.1681
      4 N          61.7135   89.3272   10.2516 N.ar    1  UNL1       -0.2287
      5 C          62.5018   90.5947   10.1029 C.ar    1  UNL1        0.0990
      6 C          63.3077   90.7887   11.3530 C.ar    1  UNL1        0.0337
      7 C          64.2930   91.6920   12.0337 C.3     1  UNL1        0.1235
      8 N          64.6118   91.1026   13.3758 N.pl3   1  UNL1       -0.2703
      9 C          60.7718   88.7503    9.2365 C.ar    1  UNL1        0.0841
     10 C          60.4144   87.2944    9.2872 C.ar    1  UNL1        0.0192
     11 C          59.4726   86.7176    8.2720 C.ar    1  UNL1        0.0029
     12 C          58.8884   87.5967    7.2063 C.ar    1  UNL1        0.0184
     13 C          59.2458   89.0526    7.1556 C.ar    1  UNL1        0.1072
     14 C          60.1875   89.6294    8.1708 C.ar    1  UNL1        0.0375
     15 S          58.6616   89.9317    6.0899 S.O2    1  UNL1        0.0105
     16 C          58.0772   90.8108    5.0242 C.3     1  UNL1        0.1816
     17 O          60.0430   90.3102    5.6446 O.2     1  UNL1       -0.1686
     18 O          57.2800   89.5532    6.5352 O.2     1  UNL1       -0.1686
     19 C          65.5535   91.6795   14.3908 C.ar    1  UNL1        0.2206
     20 N          65.0549   92.0337   15.7605 N.ar    1  UNL1       -0.2121
     21 C          65.9965   92.6106   16.7755 C.ar    1  UNL1        0.1033
     22 C          67.4370   92.8332   16.4209 C.ar    1  UNL1        0.0439
     23 C          67.9357   92.4790   15.0514 C.ar    1  UNL1        0.1570
     24 N          66.9939   91.9021   14.0363 N.ar    1  UNL1       -0.2096
     25 C          69.3761   92.7016   14.6969 C.3     1  UNL1        0.4350
     26 F          70.8164   92.9242   14.3423 F       1  UNL1       -0.1644
     27 F          69.5411   93.5671   15.9108 F       1  UNL1       -0.1644
     28 F          69.2110   91.8361   13.4829 F       1  UNL1       -0.1644
     29 C          64.4702   87.5653   14.6106 C.3     1  UNL1        0.0021
     30 C          63.8387   88.9219   14.7143 C.3     1  UNL1        0.0241
     31 C          63.2223   89.3654   16.0080 C.3     1  UNL1        0.0021
@<TRIPOS>BOND
     1    29    30    1
     2    30    31    1
     3     1    30    1
     4     1     2    1
     5     2     3   ar
     6     3     4   ar
     7     4     9    1
     8     9    10   ar
     9    10    11   ar
    10    11    12   ar
    11    12    13   ar
    12    13    15    1
    13    15    16    1
    14    15    17    2
    15    15    18    2
    16    13    14   ar
    17     4     5   ar
    18     5     6   ar
    19     6     7    1
    20     7     8    1
    21     8    19    1
    22    19    20   ar
    23    20    21   ar
    24    21    22   ar
    25    22    23   ar
    26    23    25    1
    27    25    26    1
    28    25    27    1
    29    25    28    1
    30    23    24   ar
    31     8     1    1
    32    24    19   ar
    33     6     2   ar
    34    14     9   ar
@<TRIPOS>MOLECULE
*****
 31 34 0 0 0
SMALL
GASTEIGER

@<TRIPOS>ATOM
      1 C          61.5625   87.9966   10.7035 C.3     1  UNL1        0.1174
      2 C          60.9317   88.4613    9.4244 C.ar    1  UNL1        0.0961
      3 N          60.4511   89.6701    8.6775 N.ar    1  UNL1       -0.1681
      4 N          59.9111   89.2132    7.3548 N.ar    1  UNL1       -0.2287
      5 C          60.0579   87.7221    7.2842 C.ar    1  UNL1        0.0990
      6 C          60.6887   87.2574    8.5633 C.ar    1  UNL1        0.0337
      7 C          61.1694   86.0486    9.3101 C.3     1  UNL1        0.1235
      8 N          61.7095   86.5054   10.6329 N.pl3   1  UNL1       -0.2703
      9 C          59.3267   90.0930    6.2897 C.ar    1  UNL1        0.0841
     10 C          57.8389   90.2473    6.1771 C.ar    1  UNL1        0.0192
     11 C          57.2547   91.1272    5.1119 C.ar    1  UNL1        0.0029
     12 C          58.1581   91.8526    4.1593 C.ar    1  UNL1        0.0184
     13 C          59.6459   91.6983    4.2718 C.ar    1  UNL1        0.1072
     14 C          60.2302   90.8184    5.3370 C.ar    1  UNL1        0.0375
     15 S          60.5494   92.4237    3.3193 S.O2    1  UNL1        0.0105
     16 C          61.4528   93.1491    2.3666 C.3     1  UNL1        0.1816
     17 O          61.7401   91.7535    3.9381 O.2     1  UNL1       -0.1686
     18 O          59.3586   93.0939    2.7003 O.2     1  UNL1       -0.1686
     19 C          62.2938   85.6257   11.6980 C.ar    1  UNL1        0.2206
     20 N          63.0404   86.2346   12.8477 N.ar    1  UNL1       -0.2121
     21 C          63.6247   85.3549   13.9128 C.ar    1  UNL1        0.1033
     22 C          63.4624   83.8660   13.8283 C.ar    1  UNL1        0.0439
     23 C          62.7159   83.2570   12.6786 C.ar    1  UNL1        0.1570
     24 N          62.1315   84.1369   11.6135 N.ar    1  UNL1       -0.2096
     25 C          62.5536   81.7682   12.5941 C.3     1  UNL1        0.4350
     26 F          62.3914   80.2794   12.5097 F       1  UNL1       -0.1644
     27 F          63.2317   81.7703   11.2561 F       1  UNL1       -0.1644
     28 F          61.8755   81.7662   13.9321 F       1  UNL1       -0.1644
     29 C          60.9345   89.5996   12.6492 C.3     1  UNL1        0.0021
     30 C          61.9742   88.8697   11.8516 C.3     1  UNL1        0.0241
     31 C          63.4257   89.0128   12.2022 C.3     1  UNL1        0.0021
@<TRIPOS>BOND
     1    29    30    1
     2    30    31    1
     3     1    30    1
     4     1     2    1
     5     2     3   ar
     6     3     4   ar
     7     4     9    1
     8     9    10   ar
     9    10    11   ar
    10    11    12   ar
    11    12    13   ar
    12    13    15    1
    13    15    16    1
    14    15    17    2
    15    15    18    2
    16    13    14   ar
    17     4     5   ar
    18     5     6   ar
    19     6     7    1
    20     7     8    1
    21     8    19    1
    22    19    20   ar
    23    20    21   ar
    24    21    22   ar
    25    22    23   ar
    26    23    25    1
    27    25    26    1
    28    25    27    1
    29    25    28    1
    30    23    24   ar
    31     8     1    1
    32    24    19   ar
    33     6     2   ar
    34    14     9   ar
@<TRIPOS>MOLECULE
*****
 31 34 0 0 0
SMALL
GASTEIGER

@<TRIPOS>ATOM
      1 C          63.1039   85.0013   12.8801 C.3     1  UNL1        0.1174
      2 C          63.5315   86.3069   13.4823 C.ar    1  UNL1        0.0961
      3 N          63.7754   87.7572   13.1874 N.ar    1  UNL1       -0.1681
      4 N          64.2233   88.4193   14.4566 N.ar    1  UNL1       -0.2287
      5 C          64.2562   87.3782   15.5360 C.ar    1  UNL1        0.0990
      6 C          63.8286   86.0726   14.9338 C.ar    1  UNL1        0.0337
      7 C          63.5846   84.6223   15.2287 C.3     1  UNL1        0.1235
      8 N          63.1368   83.9601   13.9594 N.pl3   1  UNL1       -0.2703
      9 C          64.5763   89.8682   14.6182 C.ar    1  UNL1        0.0841
     10 C          64.3694   90.5478   15.9393 C.ar    1  UNL1        0.0192
     11 C          64.7225   91.9967   16.1008 C.ar    1  UNL1        0.0029
     12 C          65.2825   92.7660   14.9413 C.ar    1  UNL1        0.0184
     13 C          65.4894   92.0865   13.6202 C.ar    1  UNL1        0.1072
     14 C          65.1363   90.6375   13.4587 C.ar    1  UNL1        0.0375
     15 S          66.0493   92.8557   12.4606 S.O2    1  UNL1        0.0105
     16 C          66.6092   93.6249   11.3010 C.3     1  UNL1        0.1816
     17 O          67.1914   93.3159   13.3172 O.2     1  UNL1       -0.1686
     18 O          64.9072   92.3955   11.6039 O.2     1  UNL1       -0.1686
     19 C          62.7837   82.5113   13.7979 C.ar    1  UNL1        0.2206
     20 N          63.8213   81.5341   13.3302 N.ar    1  UNL1       -0.2121
     21 C          63.4683   80.0853   13.1686 C.ar    1  UNL1        0.1033
     22 C          62.0776   79.6135   13.4748 C.ar    1  UNL1        0.0439
     23 C          61.0401   80.5906   13.9425 C.ar    1  UNL1        0.1570
     24 N          61.3932   82.0395   14.1040 N.ar    1  UNL1       -0.2096
     25 C          59.6495   80.1188   14.2486 C.3     1  UNL1        0.4350
     26 F          58.2590   79.6471   14.5548 F       1  UNL1       -0.1644
     27 F          60.1271   78.6970   14.2267 F       1  UNL1       -0.1644
     28 F          59.1721   81.5407   14.2706 F       1  UNL1       -0.1644
     29 C          63.4290   83.7454   10.6292 C.3     1  UNL1        0.0021
     30 C          62.7123   84.7763   11.4497 C.3     1  UNL1        0.0241
     31 C          61.6038   85.5823   10.8399 C.3     1  UNL1        0.0021
@<TRIPOS>BOND
     1    29    30    1
     2    30    31    1
     3     1    30    1
     4     1     2    1
     5     2     3   ar
     6     3     4   ar
     7     4     9    1
     8     9    10   ar
     9    10    11   ar
    10    11    12   ar
    11    12    13   ar
    12    13    15    1
    13    15    16    1
    14    15    17    2
    15    15    18    2
    16    13    14   ar
    17     4     5   ar
    18     5     6   ar
    19     6     7    1
    20     7     8    1
    21     8    19    1
    22    19    20   ar
    23    20    21   ar
    24    21    22   ar
    25    22    23   ar
    26    23    25    1
    27    25    26    1
    28    25    27    1
    29    25    28    1
    30    23    24   ar
    31     8     1    1
    32    24    19   ar
    33     6     2   ar
    34    14     9   ar
@<TRIPOS>MOLECULE
*****
 31 34 0 0 0
SMALL
GASTEIGER

@<TRIPOS>ATOM
      1 C          61.8967   86.1414    9.2590 C.3     1  UNL1        0.1174
      2 C          61.1467   87.2537    8.5880 C.ar    1  UNL1        0.0961
      3 N          60.7632   87.8284    7.2566 N.ar    1  UNL1       -0.1681
      4 N          59.9331   89.0534    7.5022 N.ar    1  UNL1       -0.2287
      5 C          59.8035   89.2357    8.9855 C.ar    1  UNL1        0.0990
      6 C          60.5536   88.1235    9.6565 C.ar    1  UNL1        0.0337
      7 C          60.9370   87.5488   10.9879 C.3     1  UNL1        0.1235
      8 N          61.7672   86.3237   10.7423 N.pl3   1  UNL1       -0.2703
      9 C          59.3372   89.9403    6.4495 C.ar    1  UNL1        0.0841
     10 C          57.8482   90.0934    6.3527 C.ar    1  UNL1        0.0192
     11 C          57.2523   90.9803    5.2999 C.ar    1  UNL1        0.0029
     12 C          58.1454   91.7142    4.3440 C.ar    1  UNL1        0.0184
     13 C          59.6344   91.5611    4.4408 C.ar    1  UNL1        0.1072
     14 C          60.2303   90.6741    5.4936 C.ar    1  UNL1        0.0375
     15 S          60.5276   92.2949    3.4849 S.O2    1  UNL1        0.0105
     16 C          61.4208   93.0287    2.5290 C.3     1  UNL1        0.1816
     17 O          59.3273   92.9421    2.8601 O.2     1  UNL1       -0.1686
     18 O          61.7279   91.6477    4.1097 O.2     1  UNL1       -0.1686
     19 C          62.3631   85.4369   11.7950 C.ar    1  UNL1        0.2206
     20 N          63.2253   86.0259   12.8719 N.ar    1  UNL1       -0.2121
     21 C          63.8212   85.1391   13.9246 C.ar    1  UNL1        0.1033
     22 C          63.5549   83.6630   13.9005 C.ar    1  UNL1        0.0439
     23 C          62.6927   83.0739   12.8237 C.ar    1  UNL1        0.1570
     24 N          62.0968   83.9609   11.7709 N.ar    1  UNL1       -0.2096
     25 C          62.4264   81.5980   12.7996 C.3     1  UNL1        0.4350
     26 F          62.1601   80.1220   12.7756 F       1  UNL1       -0.1644
     27 F          62.9680   81.5230   11.4028 F       1  UNL1       -0.1644
     28 F          61.8848   81.6730   14.1965 F       1  UNL1       -0.1644
     29 C          63.6787   84.2517    9.3163 C.3     1  UNL1        0.0021
     30 C          62.6450   85.0401    8.5682 C.3     1  UNL1        0.0241
     31 C          62.3595   84.7273    7.1292 C.3     1  UNL1        0.0021
@<TRIPOS>BOND
     1    29    30    1
     2    30    31    1
     3     1    30    1
     4     1     2    1
     5     2     3   ar
     6     3     4   ar
     7     4     9    1
     8     9    10   ar
     9    10    11   ar
    10    11    12   ar
    11    12    13   ar
    12    13    15    1
    13    15    16    1
    14    15    17    2
    15    15    18    2
    16    13    14   ar
    17     4     5   ar
    18     5     6   ar
    19     6     7    1
    20     7     8    1
    21     8    19    1
    22    19    20   ar
    23    20    21   ar
    24    21    22   ar
    25    22    23   ar
    26    23    25    1
    27    25    26    1
    28    25    27    1
    29    25    28    1
    30    23    24   ar
    31     8     1    1
    32    24    19   ar
    33     6     2   ar
    34    14     9   ar
@<TRIPOS>MOLECULE
*****
 31 34 0 0 0
SMALL
GASTEIGER

@<TRIPOS>ATOM
      1 C          63.6222   88.6384   12.8964 C.3     1  UNL1        0.1174
      2 C          63.4674   87.1695   13.1578 C.ar    1  UNL1        0.0961
      3 N          62.7644   85.9239   12.7056 N.ar    1  UNL1       -0.1681
      4 N          63.2170   84.7927   13.5806 N.ar    1  UNL1       -0.2287
      5 C          64.1997   85.3391   14.5735 C.ar    1  UNL1        0.0990
      6 C          64.3545   86.8081   14.3121 C.ar    1  UNL1        0.0337
      7 C          65.0575   88.0536   14.7642 C.3     1  UNL1        0.1235
      8 N          64.6049   89.1849   13.8893 N.pl3   1  UNL1       -0.2703
      9 C          62.7660   83.3656   13.4803 C.ar    1  UNL1        0.0841
     10 C          62.0105   82.7365   14.6131 C.ar    1  UNL1        0.0192
     11 C          61.5595   81.3093   14.5127 C.ar    1  UNL1        0.0029
     12 C          61.8642   80.5114   13.2797 C.ar    1  UNL1        0.0184
     13 C          62.6198   81.1406   12.1469 C.ar    1  UNL1        0.1072
     14 C          63.0707   82.5677   12.2472 C.ar    1  UNL1        0.0375
     15 S          62.9245   80.3427   10.9138 S.O2    1  UNL1        0.0105
     16 C          63.2292   79.5449    9.6807 C.3     1  UNL1        0.1816
     17 O          62.5073   79.0882   11.6223 O.2     1  UNL1       -0.1686
     18 O          63.3416   81.5973   10.2052 O.2     1  UNL1       -0.1686
     19 C          65.0559   90.6119   13.9896 C.ar    1  UNL1        0.2206
     20 N          65.2145   91.2556   15.3352 N.ar    1  UNL1       -0.2121
     21 C          65.6654   92.6826   15.4355 C.ar    1  UNL1        0.1033
     22 C          65.9578   93.4661   14.1901 C.ar    1  UNL1        0.0439
     23 C          65.7992   92.8225   12.8446 C.ar    1  UNL1        0.1570
     24 N          65.3482   91.3954   12.7443 N.ar    1  UNL1       -0.2096
     25 C          66.0916   93.6060   11.5993 C.3     1  UNL1        0.4350
     26 F          66.3840   94.3895   10.3541 F       1  UNL1       -0.1644
     27 F          65.9654   92.3544   10.7822 F       1  UNL1       -0.1644
     28 F          66.2178   94.8575   12.4165 F       1  UNL1       -0.1644
     29 C          62.3665   90.7832   12.1396 C.3     1  UNL1        0.0021
     30 C          62.9180   89.4232   11.8296 C.3     1  UNL1        0.0241
     31 C          62.7652   88.8479   10.4527 C.3     1  UNL1        0.0021
@<TRIPOS>BOND
     1    29    30    1
     2    30    31    1
     3     1    30    1
     4     1     2    1
     5     2     3   ar
     6     3     4   ar
     7     4     9    1
     8     9    10   ar
     9    10    11   ar
    10    11    12   ar
    11    12    13   ar
    12    13    15    1
    13    15    16    1
    14    15    17    2
    15    15    18    2
    16    13    14   ar
    17     4     5   ar
    18     5     6   ar
    19     6     7    1
    20     7     8    1
    21     8    19    1
    22    19    20   ar
    23    20    21   ar
    24    21    22   ar
    25    22    23   ar
    26    23    25    1
    27    25    26    1
    28    25    27    1
    29    25    28    1
    30    23    24   ar
    31     8     1    1
    32    24    19   ar
    33     6     2   ar
    34    14     9   ar
