@<TRIPOS>MOLECULE
*****
 28 30 0 0 0
SMALL
GASTEIGER

@<TRIPOS>ATOM
      1 C          62.9830   90.1387   11.9503 C.ar    1  UNL1        0.1534
      2 C          63.6331   90.1797   13.3014 C.ar    1  UNL1        0.0351
      3 C          64.7650   91.1292   13.5606 C.ar    1  UNL1        0.0722
      4 CL         65.4152   91.1702   14.9118 Cl      1  UNL1       -0.0809
      5 C          65.2468   92.0377   12.4686 C.ar    1  UNL1        0.0577
      6 C          64.5967   91.9967   11.1174 C.ar    1  UNL1        0.0462
      7 C          63.4648   91.0472   10.8583 C.ar    1  UNL1        0.1602
      8 F          62.8146   91.0062    9.5071 F       1  UNL1       -0.2027
      9 O          60.9072   90.3484   11.5667 O.2     1  UNL1       -0.1498
     10 S          61.8510   89.1892   11.6911 S.O2    1  UNL1        0.0772
     11 O          62.7948   88.0300   11.8155 O.2     1  UNL1       -0.1498
     12 N          60.7190   88.2398   11.4319 N.pl3   1  UNL1       -0.1936
     13 H          60.1753   87.9057   12.1815 H       1  UNL1        0.1758
     14 C          60.4154   87.7994   10.0304 C.ar    1  UNL1        0.1786
     15 N          59.7247   88.6168    8.9794 N.ar    1  UNL1       -0.2214
     16 C          59.6317   87.7868    7.7335 C.ar    1  UNL1        0.1079
     17 C          60.2650   86.4564    8.0144 C.ar    1  UNL1        0.0588
     18 S          60.7494   86.4642    9.4341 S.2     1  UNL1       -0.0497
     19 N          66.3788   92.9872   12.7278 N.pl3   1  UNL1       -0.3299
     20 H          67.2150   92.6582   13.1301 H       1  UNL1        0.1469
     21 C          66.2369   94.4379   12.3739 C.3     1  UNL1        0.1185
     22 C          66.4424   94.8881   10.9579 C.3     1  UNL1        0.1503
     23 C          65.4789   95.8508   10.3296 C.3     1  UNL1        0.1003
     24 N          65.6845   96.3010    8.9137 N.3     1  UNL1       -0.2933
     25 C          66.8536   95.7885    8.1260 C.3     1  UNL1        0.1011
     26 C          67.8172   94.8259    8.7542 C.3     1  UNL1        0.1592
     27 O          67.6116   94.3757   10.1702 O.3     1  UNL1       -0.3516
     28 H          65.7679   97.3173    8.9370 H       1  UNL1        0.1234
@<TRIPOS>BOND
     1     9    10    2
     2    10    11    2
     3    10    12    1
     4    12    14    1
     5    14    15   ar
     6    15    16   ar
     7    16    17   ar
     8    17    18   ar
     9    10     1    1
    10     1     2   ar
    11     2     3   ar
    12     3     4    1
    13     3     5   ar
    14     5    19    1
    15    19    21    1
    16    21    22    1
    17    22    23    1
    18    23    24    1
    19    24    25    1
    20    25    26    1
    21    26    27    1
    22     5     6   ar
    23     6     7   ar
    24     7     8    1
    25    18    14   ar
    26     7     1   ar
    27    27    22    1
    28    12    13    1
    29    19    20    1
    30    24    28    1
@<TRIPOS>MOLECULE
*****
 28 30 0 0 0
SMALL
GASTEIGER

@<TRIPOS>ATOM
      1 C          63.6304   86.3970   15.5638 C.ar    1  UNL1        0.1534
      2 C          63.9308   87.1909   14.3271 C.ar    1  UNL1        0.0351
      3 C          63.8799   88.6895   14.3673 C.ar    1  UNL1        0.0722
      4 CL         64.1804   89.4836   13.1306 Cl      1  UNL1       -0.0809
      5 C          63.5286   89.3941   15.6440 C.ar    1  UNL1        0.0577
      6 C          63.2281   88.6001   16.8807 C.ar    1  UNL1        0.0462
      7 C          63.2790   87.1015   16.8405 C.ar    1  UNL1        0.1602
      8 F          62.9786   86.3075   18.0772 F       1  UNL1       -0.2027
      9 O          62.2355   84.8387   15.9186 O.2     1  UNL1       -0.1498
     10 S          63.6813   84.8983   15.5237 S.O2    1  UNL1        0.0772
     11 O          65.1271   84.9579   15.1287 O.2     1  UNL1       -0.1498
     12 N          63.7321   83.3997   15.4836 N.pl3   1  UNL1       -0.1936
     13 H          64.0088   82.8951   16.2823 H       1  UNL1        0.1758
     14 C          63.3614   82.6700   14.2265 C.ar    1  UNL1        0.1786
     15 N          63.3376   81.1812   14.0456 N.ar    1  UNL1       -0.2214
     16 C          62.9109   80.8921   12.6370 C.ar    1  UNL1        0.1079
     17 C          62.6710   82.2024   11.9471 C.ar    1  UNL1        0.0588
     18 S          62.9495   83.3013   12.9296 S.2     1  UNL1       -0.0497
     19 N          63.4777   90.8927   15.6841 N.pl3   1  UNL1       -0.3299
     20 H          62.6185   91.3594   15.5689 H       1  UNL1        0.1469
     21 C          64.7358   91.6804   15.8998 C.3     1  UNL1        0.1185
     22 C          65.6681   91.9339   14.7523 C.3     1  UNL1        0.1503
     23 C          67.1180   91.5680   14.8690 C.3     1  UNL1        0.1003
     24 N          68.0501   91.8215   13.7215 N.3     1  UNL1       -0.2933
     25 C          67.5323   92.4409   12.4573 C.3     1  UNL1        0.1011
     26 C          66.0824   92.8068   12.3406 C.3     1  UNL1        0.1592
     27 O          65.1502   92.5533   13.4881 O.3     1  UNL1       -0.3516
     28 H          68.4526   90.9202   13.4644 H       1  UNL1        0.1234
@<TRIPOS>BOND
     1     9    10    2
     2    10    11    2
     3    10    12    1
     4    12    14    1
     5    14    15   ar
     6    15    16   ar
     7    16    17   ar
     8    17    18   ar
     9    10     1    1
    10     1     2   ar
    11     2     3   ar
    12     3     4    1
    13     3     5   ar
    14     5    19    1
    15    19    21    1
    16    21    22    1
    17    22    23    1
    18    23    24    1
    19    24    25    1
    20    25    26    1
    21    26    27    1
    22     5     6   ar
    23     6     7   ar
    24     7     8    1
    25    18    14   ar
    26     7     1   ar
    27    27    22    1
    28    12    13    1
    29    19    20    1
    30    24    28    1
@<TRIPOS>MOLECULE
*****
 28 30 0 0 0
SMALL
GASTEIGER

@<TRIPOS>ATOM
      1 C          62.7328   89.9350   11.7876 C.ar    1  UNL1        0.1534
      2 C          63.3694   90.0929   13.1365 C.ar    1  UNL1        0.0351
      3 C          64.4293   91.1329   13.3486 C.ar    1  UNL1        0.0722
      4 CL         65.0660   91.2908   14.6976 Cl      1  UNL1       -0.0809
      5 C          64.8526   92.0150   12.2116 C.ar    1  UNL1        0.0577
      6 C          64.2160   91.8572   10.8626 C.ar    1  UNL1        0.0462
      7 C          63.1561   90.8172   10.6506 C.ar    1  UNL1        0.1602
      8 F          62.5194   90.6593    9.3016 F       1  UNL1       -0.2027
      9 O          62.7145   87.8183   11.6502 O.2     1  UNL1       -0.1498
     10 S          61.6729   88.8950   11.5755 S.O2    1  UNL1        0.0772
     11 O          60.6313   89.9717   11.5008 O.2     1  UNL1       -0.1498
     12 N          60.6130   87.8550   11.3634 N.pl3   1  UNL1       -0.1936
     13 H          60.0976   87.5140   12.1298 H       1  UNL1        0.1758
     14 C          60.3385   87.3343    9.9836 C.ar    1  UNL1        0.1786
     15 N          60.9284   86.0970    9.3746 N.ar    1  UNL1       -0.2214
     16 C          60.3804   85.9576    7.9853 C.ar    1  UNL1        0.1079
     17 C          59.4517   87.1089    7.7357 C.ar    1  UNL1        0.0588
     18 S          59.4259   87.9598    8.9708 S.2     1  UNL1       -0.0497
     19 N          65.9125   93.0551   12.4237 N.pl3   1  UNL1       -0.3299
     20 H          65.9316   93.5752   13.2594 H       1  UNL1        0.1469
     21 C          66.9433   93.3026   11.3625 C.3     1  UNL1        0.1185
     22 C          66.8103   94.4849   10.4489 C.3     1  UNL1        0.1503
     23 C          67.8062   94.6975    9.3476 C.3     1  UNL1        0.1003
     24 N          67.6731   95.8797    8.4341 N.3     1  UNL1       -0.2933
     25 C          66.5442   96.8493    8.6219 C.3     1  UNL1        0.1011
     26 C          65.5483   96.6368    9.7232 C.3     1  UNL1        0.1592
     27 O          65.6813   95.4545   10.6367 O.3     1  UNL1       -0.3516
     28 H          67.5906   95.5117    7.4864 H       1  UNL1        0.1234
@<TRIPOS>BOND
     1     9    10    2
     2    10    11    2
     3    10    12    1
     4    12    14    1
     5    14    15   ar
     6    15    16   ar
     7    16    17   ar
     8    17    18   ar
     9    10     1    1
    10     1     2   ar
    11     2     3   ar
    12     3     4    1
    13     3     5   ar
    14     5    19    1
    15    19    21    1
    16    21    22    1
    17    22    23    1
    18    23    24    1
    19    24    25    1
    20    25    26    1
    21    26    27    1
    22     5     6   ar
    23     6     7   ar
    24     7     8    1
    25    18    14   ar
    26     7     1   ar
    27    27    22    1
    28    12    13    1
    29    19    20    1
    30    24    28    1
@<TRIPOS>MOLECULE
*****
 28 30 0 0 0
SMALL
GASTEIGER

@<TRIPOS>ATOM
      1 C          64.6932   91.6350   11.8955 C.ar    1  UNL1        0.1534
      2 C          63.7298   91.5178   10.7518 C.ar    1  UNL1        0.0351
      3 C          62.7129   90.4153   10.7379 C.ar    1  UNL1        0.0722
      4 CL         61.7494   90.2980    9.5942 Cl      1  UNL1       -0.0809
      5 C          62.6593   89.4300   11.8677 C.ar    1  UNL1        0.0577
      6 C          63.6227   89.5472   13.0114 C.ar    1  UNL1        0.0462
      7 C          64.6397   90.6497   13.0253 C.ar    1  UNL1        0.1602
      8 F          65.6032   90.7670   14.1690 F       1  UNL1       -0.2027
      9 O          65.2687   93.1273   13.2890 O.2     1  UNL1       -0.1498
     10 S          65.7103   92.7375   11.9095 S.O2    1  UNL1        0.0772
     11 O          66.1519   92.3477   10.5300 O.2     1  UNL1       -0.1498
     12 N          66.7272   93.8400   11.9235 N.pl3   1  UNL1       -0.1936
     13 H          67.3806   93.8977   12.6577 H       1  UNL1        0.1758
     14 C          66.7487   94.8547   10.8189 C.ar    1  UNL1        0.1786
     15 N          67.7569   94.9304    9.7108 N.ar    1  UNL1       -0.2214
     16 C          67.3971   96.0942    8.8356 C.ar    1  UNL1        0.1079
     17 C          66.1665   96.7378    9.4027 C.ar    1  UNL1        0.0588
     18 S          65.7658   95.9716   10.6285 S.2     1  UNL1       -0.0497
     19 N          61.6423   88.3274   11.8537 N.pl3   1  UNL1       -0.3299
     20 H          60.8035   88.4250   12.3598 H       1  UNL1        0.1469
     21 C          61.9032   87.0763   11.0686 C.3     1  UNL1        0.1185
     22 C          62.5907   85.9124   11.7189 C.3     1  UNL1        0.1503
     23 C          62.6560   84.5902   11.0134 C.3     1  UNL1        0.1003
     24 N          63.3435   83.4264   11.6638 N.3     1  UNL1       -0.2933
     25 C          63.9655   83.5847   13.0195 C.3     1  UNL1        0.1011
     26 C          63.9001   84.9069   13.7249 C.3     1  UNL1        0.1592
     27 O          63.2127   86.0707   13.0746 O.3     1  UNL1       -0.3516
     28 H          64.0875   83.1328   11.0309 H       1  UNL1        0.1234
@<TRIPOS>BOND
     1     9    10    2
     2    10    11    2
     3    10    12    1
     4    12    14    1
     5    14    15   ar
     6    15    16   ar
     7    16    17   ar
     8    17    18   ar
     9    10     1    1
    10     1     2   ar
    11     2     3   ar
    12     3     4    1
    13     3     5   ar
    14     5    19    1
    15    19    21    1
    16    21    22    1
    17    22    23    1
    18    23    24    1
    19    24    25    1
    20    25    26    1
    21    26    27    1
    22     5     6   ar
    23     6     7   ar
    24     7     8    1
    25    18    14   ar
    26     7     1   ar
    27    27    22    1
    28    12    13    1
    29    19    20    1
    30    24    28    1
@<TRIPOS>MOLECULE
*****
 28 30 0 0 0
SMALL
GASTEIGER

@<TRIPOS>ATOM
      1 C          63.7590   86.6423   14.4732 C.ar    1  UNL1        0.1534
      2 C          63.8516   87.6806   15.5518 C.ar    1  UNL1        0.0351
      3 C          63.7445   89.1356   15.2033 C.ar    1  UNL1        0.0722
      4 CL         63.8371   90.1739   16.2819 Cl      1  UNL1       -0.0809
      5 C          63.5449   89.5523   13.7762 C.ar    1  UNL1        0.0577
      6 C          63.4523   88.5140   12.6977 C.ar    1  UNL1        0.0462
      7 C          63.5593   87.0590   13.0461 C.ar    1  UNL1        0.1602
      8 F          63.4667   86.0206   11.9675 F       1  UNL1       -0.2027
      9 O          65.3590   85.2686   14.7026 O.2     1  UNL1       -0.1498
     10 S          63.8660   85.1872   14.8217 S.O2    1  UNL1        0.0772
     11 O          62.3730   85.1058   14.9407 O.2     1  UNL1       -0.1498
     12 N          63.9731   83.7322   15.1701 N.pl3   1  UNL1       -0.1936
     13 H          64.3653   83.4598   16.0310 H       1  UNL1        0.1758
     14 C          63.4825   82.6922   14.2068 C.ar    1  UNL1        0.1786
     15 N          62.5854   81.5366   14.5383 N.ar    1  UNL1       -0.2214
     16 C          62.3514   80.7555   13.2793 C.ar    1  UNL1        0.1079
     17 C          63.1039   81.4283   12.1697 C.ar    1  UNL1        0.0588
     18 S          63.8030   82.6253   12.7430 S.2     1  UNL1       -0.0497
     19 N          63.4378   91.0074   13.4278 N.pl3   1  UNL1       -0.3299
     20 H          62.5977   91.4929   13.5943 H       1  UNL1        0.1469
     21 C          64.6108   91.7226   12.8257 C.3     1  UNL1        0.1185
     22 C          65.8110   92.0370   13.6687 C.3     1  UNL1        0.1503
     23 C          67.1902   91.8483   13.1100 C.3     1  UNL1        0.1003
     24 N          68.3904   92.1626   13.9530 N.3     1  UNL1       -0.2933
     25 C          68.2113   92.6656   15.3548 C.3     1  UNL1        0.1011
     26 C          66.8322   92.8542   15.9135 C.3     1  UNL1        0.1592
     27 O          65.6320   92.5399   15.0705 O.3     1  UNL1       -0.3516
     28 H          68.9248   92.8721   13.4516 H       1  UNL1        0.1234
@<TRIPOS>BOND
     1     9    10    2
     2    10    11    2
     3    10    12    1
     4    12    14    1
     5    14    15   ar
     6    15    16   ar
     7    16    17   ar
     8    17    18   ar
     9    10     1    1
    10     1     2   ar
    11     2     3   ar
    12     3     4    1
    13     3     5   ar
    14     5    19    1
    15    19    21    1
    16    21    22    1
    17    22    23    1
    18    23    24    1
    19    24    25    1
    20    25    26    1
    21    26    27    1
    22     5     6   ar
    23     6     7   ar
    24     7     8    1
    25    18    14   ar
    26     7     1   ar
    27    27    22    1
    28    12    13    1
    29    19    20    1
    30    24    28    1
@<TRIPOS>MOLECULE
*****
 28 30 0 0 0
SMALL
GASTEIGER

@<TRIPOS>ATOM
      1 C          63.6254   85.8164   13.7743 C.ar    1  UNL1        0.1534
      2 C          62.9878   86.1142   12.4497 C.ar    1  UNL1        0.0351
      3 C          62.9320   87.5255   11.9446 C.ar    1  UNL1        0.0722
      4 CL         62.2944   87.8234   10.6199 Cl      1  UNL1       -0.0809
      5 C          63.5137   88.6390   12.7642 C.ar    1  UNL1        0.0577
      6 C          64.1512   88.3412   14.0889 C.ar    1  UNL1        0.0462
      7 C          64.2071   86.9299   14.5939 C.ar    1  UNL1        0.1602
      8 F          64.8447   86.6321   15.9187 F       1  UNL1       -0.2027
      9 O          62.2144   84.4576   14.5883 O.2     1  UNL1       -0.1498
     10 S          63.6813   84.4051   14.2794 S.O2    1  UNL1        0.0772
     11 O          65.1482   84.3526   13.9706 O.2     1  UNL1       -0.1498
     12 N          63.7371   82.9938   14.7845 N.pl3   1  UNL1       -0.1936
     13 H          64.0870   82.8070   15.6856 H       1  UNL1        0.1758
     14 C          63.2599   81.8672   13.9168 C.ar    1  UNL1        0.1786
     15 N          62.5385   80.6382   14.3850 N.ar    1  UNL1       -0.2214
     16 C          62.2530   79.7832   13.1860 C.ar    1  UNL1        0.1079
     17 C          62.7980   80.4838   11.9767 C.ar    1  UNL1        0.0588
     18 S          63.4203   81.7718   12.4284 S.2     1  UNL1       -0.0497
     19 N          63.4578   90.0503   12.2591 N.pl3   1  UNL1       -0.3299
     20 H          63.2384   90.2272   11.3158 H       1  UNL1        0.1469
     21 C          63.7361   91.1921   13.1912 C.3     1  UNL1        0.1185
     22 C          65.1506   91.6118   13.4617 C.3     1  UNL1        0.1503
     23 C          65.8939   92.4369   12.4535 C.3     1  UNL1        0.1003
     24 N          67.3084   92.8566   12.7240 N.3     1  UNL1       -0.2933
     25 C          67.9794   92.4511   14.0028 C.3     1  UNL1        0.1011
     26 C          67.2361   91.6260   15.0110 C.3     1  UNL1        0.1592
     27 O          65.8217   91.2064   14.7405 O.3     1  UNL1       -0.3516
     28 H          67.3239   93.8760   12.6937 H       1  UNL1        0.1234
@<TRIPOS>BOND
     1     9    10    2
     2    10    11    2
     3    10    12    1
     4    12    14    1
     5    14    15   ar
     6    15    16   ar
     7    16    17   ar
     8    17    18   ar
     9    10     1    1
    10     1     2   ar
    11     2     3   ar
    12     3     4    1
    13     3     5   ar
    14     5    19    1
    15    19    21    1
    16    21    22    1
    17    22    23    1
    18    23    24    1
    19    24    25    1
    20    25    26    1
    21    26    27    1
    22     5     6   ar
    23     6     7   ar
    24     7     8    1
    25    18    14   ar
    26     7     1   ar
    27    27    22    1
    28    12    13    1
    29    19    20    1
    30    24    28    1
@<TRIPOS>MOLECULE
*****
 28 30 0 0 0
SMALL
GASTEIGER

@<TRIPOS>ATOM
      1 C          63.3392   85.6343   15.2665 C.ar    1  UNL1        0.1534
      2 C          63.1012   86.5348   16.4423 C.ar    1  UNL1        0.0351
      3 C          63.4286   87.9955   16.3467 C.ar    1  UNL1        0.0722
      4 CL         63.1906   88.8960   17.5225 Cl      1  UNL1       -0.0809
      5 C          63.9941   88.5557   15.0753 C.ar    1  UNL1        0.0577
      6 C          64.2322   87.6552   13.8995 C.ar    1  UNL1        0.0462
      7 C          63.9047   86.1945   13.9952 C.ar    1  UNL1        0.1602
      8 F          64.1428   85.2940   12.8194 F       1  UNL1       -0.2027
      9 O          64.4756   83.8478   15.3969 O.2     1  UNL1       -0.1498
     10 S          63.0118   84.1736   15.3621 S.O2    1  UNL1        0.0772
     11 O          61.5481   84.4994   15.3273 O.2     1  UNL1       -0.1498
     12 N          62.6844   82.7129   15.4577 N.pl3   1  UNL1       -0.1936
     13 H          62.4785   82.3108   16.3324 H       1  UNL1        0.1758
     14 C          62.6709   81.8648   14.2205 C.ar    1  UNL1        0.1786
     15 N          62.6258   80.3660   14.1794 N.ar    1  UNL1       -0.2214
     16 C          62.6271   79.9415   12.7407 C.ar    1  UNL1        0.1079
     17 C          62.6730   81.1780   11.8926 C.ar    1  UNL1        0.0588
     18 S          62.7000   82.3667   12.8072 S.2     1  UNL1       -0.0497
     19 N          64.3216   90.0164   14.9797 N.pl3   1  UNL1       -0.3299
     20 H          64.8872   90.4400   15.6652 H       1  UNL1        0.1469
     21 C          63.7872   90.8318   13.8397 C.3     1  UNL1        0.1185
     22 C          64.7247   91.6365   12.9889 C.3     1  UNL1        0.1503
     23 C          65.9350   92.2745   13.6037 C.3     1  UNL1        0.1003
     24 N          66.8724   93.0791   12.7530 N.3     1  UNL1       -0.2933
     25 C          66.5994   93.2457   11.2874 C.3     1  UNL1        0.1011
     26 C          65.3891   92.6077   10.6727 C.3     1  UNL1        0.1592
     27 O          64.4517   91.8031   11.5234 O.3     1  UNL1       -0.3516
     28 H          67.7910   92.6432   12.8337 H       1  UNL1        0.1234
@<TRIPOS>BOND
     1     9    10    2
     2    10    11    2
     3    10    12    1
     4    12    14    1
     5    14    15   ar
     6    15    16   ar
     7    16    17   ar
     8    17    18   ar
     9    10     1    1
    10     1     2   ar
    11     2     3   ar
    12     3     4    1
    13     3     5   ar
    14     5    19    1
    15    19    21    1
    16    21    22    1
    17    22    23    1
    18    23    24    1
    19    24    25    1
    20    25    26    1
    21    26    27    1
    22     5     6   ar
    23     6     7   ar
    24     7     8    1
    25    18    14   ar
    26     7     1   ar
    27    27    22    1
    28    12    13    1
    29    19    20    1
    30    24    28    1
@<TRIPOS>MOLECULE
*****
 28 30 0 0 0
SMALL
GASTEIGER

@<TRIPOS>ATOM
      1 C          62.7475   87.0506   11.9596 C.ar    1  UNL1        0.1534
      2 C          62.1677   88.1407   11.1079 C.ar    1  UNL1        0.0351
      3 C          62.4523   89.5773   11.4320 C.ar    1  UNL1        0.0722
      4 CL         61.8725   90.6675   10.5803 Cl      1  UNL1       -0.0809
      5 C          63.3168   89.9238   12.6079 C.ar    1  UNL1        0.0577
      6 C          63.8967   88.8337   13.4596 C.ar    1  UNL1        0.0462
      7 C          63.6120   87.3971   13.1354 C.ar    1  UNL1        0.1602
      8 F          64.1918   86.3069   13.9871 F       1  UNL1       -0.2027
      9 O          62.1711   85.3454   13.0821 O.2     1  UNL1       -0.1498
     10 S          62.4628   85.6139   11.6355 S.O2    1  UNL1        0.0772
     11 O          62.7546   85.8824   10.1889 O.2     1  UNL1       -0.1498
     12 N          62.1782   84.1773   11.3114 N.pl3   1  UNL1       -0.1936
     13 H          61.5156   83.9507   10.6194 H       1  UNL1        0.1758
     14 C          62.9031   83.0858   12.0417 C.ar    1  UNL1        0.1786
     15 N          64.3869   82.9927   12.2408 N.ar    1  UNL1       -0.2214
     16 C          64.6722   81.7452   13.0232 C.ar    1  UNL1        0.1079
     17 C          63.3647   81.0672   13.3078 C.ar    1  UNL1        0.0588
     18 S          62.2713   81.8958   12.7011 S.2     1  UNL1       -0.0497
     19 N          63.6015   91.3605   12.9320 N.pl3   1  UNL1       -0.3299
     20 H          62.9277   91.9016   13.4036 H       1  UNL1        0.1469
     21 C          64.9128   91.9727   12.5376 C.3     1  UNL1        0.1185
     22 C          65.9897   92.1649   13.5640 C.3     1  UNL1        0.1503
     23 C          67.4292   91.9814   13.1843 C.3     1  UNL1        0.1003
     24 N          68.5059   92.1736   14.2107 N.3     1  UNL1       -0.2933
     25 C          68.1433   92.5494   15.6168 C.3     1  UNL1        0.1011
     26 C          66.7038   92.7330   15.9966 C.3     1  UNL1        0.1592
     27 O          65.6270   92.5407   14.9702 O.3     1  UNL1       -0.3516
     28 H          69.1204   92.9078   13.8589 H       1  UNL1        0.1234
@<TRIPOS>BOND
     1     9    10    2
     2    10    11    2
     3    10    12    1
     4    12    14    1
     5    14    15   ar
     6    15    16   ar
     7    16    17   ar
     8    17    18   ar
     9    10     1    1
    10     1     2   ar
    11     2     3   ar
    12     3     4    1
    13     3     5   ar
    14     5    19    1
    15    19    21    1
    16    21    22    1
    17    22    23    1
    18    23    24    1
    19    24    25    1
    20    25    26    1
    21    26    27    1
    22     5     6   ar
    23     6     7   ar
    24     7     8    1
    25    18    14   ar
    26     7     1   ar
    27    27    22    1
    28    12    13    1
    29    19    20    1
    30    24    28    1
@<TRIPOS>MOLECULE
*****
 28 30 0 0 0
SMALL
GASTEIGER

@<TRIPOS>ATOM
      1 C          62.8053   87.0455   11.9331 C.ar    1  UNL1        0.1534
      2 C          63.4950   87.4030   13.2162 C.ar    1  UNL1        0.0351
      3 C          63.7762   88.8401   13.5413 C.ar    1  UNL1        0.0722
      4 CL         64.4659   89.1977   14.8245 Cl      1  UNL1       -0.0809
      5 C          63.3676   89.9196   12.5833 C.ar    1  UNL1        0.0577
      6 C          62.6779   89.5620   11.3002 C.ar    1  UNL1        0.0462
      7 C          62.3968   88.1250   10.9751 C.ar    1  UNL1        0.1602
      8 F          61.7070   87.7673    9.6920 F       1  UNL1       -0.2027
      9 O          63.8935   85.2313   12.0904 O.2     1  UNL1       -0.1498
     10 S          62.5242   85.6083   11.6079 S.O2    1  UNL1        0.0772
     11 O          61.1549   85.9853   11.1255 O.2     1  UNL1       -0.1498
     12 N          62.2431   84.1712   11.2828 N.pl3   1  UNL1       -0.1936
     13 H          61.8545   83.9308   10.4108 H       1  UNL1        0.1758
     14 C          62.5540   83.1005   12.2863 C.ar    1  UNL1        0.1786
     15 N          62.4100   83.2184   13.7747 N.ar    1  UNL1       -0.2214
     16 C          62.8306   81.9147   14.3858 C.ar    1  UNL1        0.1079
     17 C          63.2345   80.9910   13.2750 C.ar    1  UNL1        0.0588
     18 S          63.0636   81.7239   11.9774 S.2     1  UNL1       -0.0497
     19 N          63.6488   91.3567   12.9085 N.pl3   1  UNL1       -0.3299
     20 H          62.9736   91.8958   13.3805 H       1  UNL1        0.1469
     21 C          64.9586   91.9724   12.5146 C.3     1  UNL1        0.1185
     22 C          66.0360   92.1640   13.5407 C.3     1  UNL1        0.1503
     23 C          67.4734   91.9544   13.1669 C.3     1  UNL1        0.1003
     24 N          68.5507   92.1459   14.1929 N.3     1  UNL1       -0.2933
     25 C          68.1906   92.5471   15.5926 C.3     1  UNL1        0.1011
     26 C          66.7531   92.7568   15.9664 C.3     1  UNL1        0.1592
     27 O          65.6758   92.5652   14.9404 O.3     1  UNL1       -0.3516
     28 H          69.1764   92.8661   13.8319 H       1  UNL1        0.1234
@<TRIPOS>BOND
     1     9    10    2
     2    10    11    2
     3    10    12    1
     4    12    14    1
     5    14    15   ar
     6    15    16   ar
     7    16    17   ar
     8    17    18   ar
     9    10     1    1
    10     1     2   ar
    11     2     3   ar
    12     3     4    1
    13     3     5   ar
    14     5    19    1
    15    19    21    1
    16    21    22    1
    17    22    23    1
    18    23    24    1
    19    24    25    1
    20    25    26    1
    21    26    27    1
    22     5     6   ar
    23     6     7   ar
    24     7     8    1
    25    18    14   ar
    26     7     1   ar
    27    27    22    1
    28    12    13    1
    29    19    20    1
    30    24    28    1
