@<TRIPOS>MOLECULE
*****
 50 54 0 0 0
SMALL
GASTEIGER

@<TRIPOS>ATOM
      1 C          62.5980   90.7013   10.9887 C.3     1  UNL1        0.0780
      2 C          62.2213   90.9792    9.5636 C.3     1  UNL1        0.0096
      3 C          62.5333   90.1484   12.3816 C.3     1  UNL1        0.0154
      4 C          63.6085   90.4839   13.3723 C.3     1  UNL1        0.0452
      5 C          64.7483   91.3722   12.9702 C.3     1  UNL1        0.1018
      6 N          64.8129   91.9251   11.5773 N.am    1  UNL1       -0.2770
      7 C          63.7377   91.5896   10.5866 C.2     1  UNL1        0.2254
      8 O          63.8024   92.1425    9.1937 O.2     1  UNL1       -0.2749
      9 C          63.5439   89.9310   14.7652 C.ar    1  UNL1       -0.0197
     10 C          63.4780   90.8621   15.9394 C.ar    1  UNL1       -0.0042
     11 C          63.4134   90.3092   17.3323 C.ar    1  UNL1        0.0005
     12 C          63.4145   88.8253   17.5510 C.ar    1  UNL1        0.0114
     13 C          63.4804   87.8941   16.3768 C.ar    1  UNL1        0.0574
     14 CL         63.4815   86.4102   16.5955 Cl      1  UNL1       -0.0823
     15 C          63.5450   88.4470   14.9839 C.ar    1  UNL1        0.0072
     16 C          65.8235   91.7076   13.9609 C.ar    1  UNL1       -0.0039
     17 C          65.8171   93.0385   14.6527 C.ar    1  UNL1       -0.0018
     18 C          66.8923   93.3739   15.6434 C.ar    1  UNL1        0.0111
     19 C          67.9738   92.3784   15.9422 C.ar    1  UNL1        0.0577
     20 CL         69.0490   92.7139   16.9330 Cl      1  UNL1       -0.0822
     21 C          67.9802   91.0475   15.2505 C.ar    1  UNL1        0.0111
     22 C          66.9050   90.7121   14.2597 C.ar    1  UNL1       -0.0018
     23 C          61.3273   89.9095   10.8960 C.3     1  UNL1        0.0940
     24 N          62.5863   87.7155   11.4885 N.am    1  UNL1       -0.2838
     25 C          61.3718   88.4112   10.9490 C.2     1  UNL1        0.2266
     26 O          60.2017   87.6084   10.4625 O.2     1  UNL1       -0.2748
     27 H          63.3542   88.2423   11.8079 H       1  UNL1        0.1549
     28 C          62.9016   84.0209   12.9030 C.ar    1  UNL1        0.1410
     29 C          62.8571   85.5193   12.8499 C.ar    1  UNL1        0.0516
     30 C          62.6307   86.2170   11.5416 C.ar    1  UNL1        0.0533
     31 C          62.4486   85.4164   10.2863 C.ar    1  UNL1        0.0149
     32 C          62.4930   83.9181   10.3393 C.ar    1  UNL1        0.0054
     33 C          62.7195   83.2203   11.6477 C.ar    1  UNL1        0.0480
     34 C          62.7639   81.7218   11.7007 C.2     1  UNL1        0.0758
     35 O          62.0759   80.9901   12.8148 O.co2   1  UNL1       -0.5445
     36 O          63.4963   80.9552   10.6396 O.co2   1  UNL1       -0.5445
     37 C          64.3811   83.5841   14.9935 C.3     1  UNL1        0.2525
     38 O          63.1280   83.3231   14.2114 O.3     1  UNL1       -0.4713
     39 C          65.9527   92.8134   11.1750 C.3     1  UNL1        0.0991
     40 C          67.2391   92.2111   10.6928 C.3     1  UNL1        0.0200
     41 C          68.6001   91.6511   10.9824 C.3     1  UNL1        0.0018
     42 C          68.1060   91.7279    9.5682 C.3     1  UNL1        0.0018
     43 C          65.8061   94.3041   11.2550 C.3     1  UNL1        0.1703
     44 S          66.1309   95.1547   10.0629 S.O2    1  UNL1       -0.0115
     45 O          64.6671   95.3101    9.7749 O.2     1  UNL1       -0.1730
     46 O          67.5948   94.9993   10.3511 O.2     1  UNL1       -0.1730
     47 C          66.4558   96.0053    8.8709 C.3     1  UNL1        0.1108
     48 C          67.6617   95.1571    8.5943 C.3     1  UNL1        0.0236
     49 C          65.2500   96.8535    9.1475 C.3     1  UNL1        0.0236
     50 C          66.7807   96.8559    7.6789 C.3     1  UNL1        0.0236
@<TRIPOS>UNITY_ATOM_ATTR
35 1
charge -1
@<TRIPOS>BOND
     1    37    38    1
     2    38    28    1
     3    28    29   ar
     4    29    30   ar
     5    30    24    1
     6    24    25   am
     7    25    26    2
     8    25    23    1
     9    23     1    1
    10     1     2    1
    11     1     3    1
    12     3     4    1
    13     4     9    1
    14     9    10   ar
    15    10    11   ar
    16    11    12   ar
    17    12    13   ar
    18    13    14    1
    19    13    15   ar
    20     4     5    1
    21     5    16    1
    22    16    17   ar
    23    17    18   ar
    24    18    19   ar
    25    19    20    1
    26    19    21   ar
    27    21    22   ar
    28     5     6    1
    29     6    39    1
    30    39    43    1
    31    43    44    1
    32    44    45    2
    33    44    46    2
    34    44    47    1
    35    47    48    1
    36    47    49    1
    37    47    50    1
    38    39    40    1
    39    40    41    1
    40    41    42    1
    41     6     7   am
    42     7     8    2
    43    30    31   ar
    44    31    32   ar
    45    32    33   ar
    46    33    34    1
    47    34    35   ar
    48    34    36   ar
    49    33    28   ar
    50     7     1    1
    51    15     9   ar
    52    22    16   ar
    53    42    40    1
    54    24    27    1
@<TRIPOS>MOLECULE
*****
 50 54 0 0 0
SMALL
GASTEIGER

@<TRIPOS>ATOM
      1 C          64.0889   87.5820   14.6049 C.3     1  UNL1        0.0780
      2 C          64.5779   86.9698   15.8839 C.3     1  UNL1        0.0096
      3 C          63.7394   88.6245   13.5845 C.3     1  UNL1        0.0154
      4 C          63.1580   88.2157   12.2635 C.3     1  UNL1        0.0452
      5 C          62.9262   86.7646   11.9629 C.3     1  UNL1        0.1018
      6 N          63.2758   85.7221   12.9833 N.am    1  UNL1       -0.2770
      7 C          63.8571   86.1309   14.3043 C.2     1  UNL1        0.2254
      8 O          64.2067   85.0884   15.3246 O.2     1  UNL1       -0.2749
      9 C          62.8085   89.2582   11.2432 C.ar    1  UNL1       -0.0197
     10 C          63.6305   90.5084   11.1363 C.ar    1  UNL1       -0.0042
     11 C          63.2810   91.5508   10.1160 C.ar    1  UNL1        0.0005
     12 C          62.1095   91.3431    9.2025 C.ar    1  UNL1        0.0114
     13 C          61.2875   90.0930    9.3094 C.ar    1  UNL1        0.0574
     14 CL         60.1160   89.8853    8.3959 Cl      1  UNL1       -0.0823
     15 C          61.6370   89.0505   10.3298 C.ar    1  UNL1        0.0072
     16 C          62.3449   86.3558   10.6419 C.ar    1  UNL1       -0.0039
     17 C          60.8570   86.3254   10.4546 C.ar    1  UNL1       -0.0018
     18 C          60.2756   85.9166    9.1336 C.ar    1  UNL1        0.0111
     19 C          61.1822   85.5384    8.0000 C.ar    1  UNL1        0.0577
     20 CL         60.6009   85.1296    6.6790 Cl      1  UNL1       -0.0822
     21 C          62.6702   85.5688    8.1873 C.ar    1  UNL1        0.0111
     22 C          63.2515   85.9776    9.5084 C.ar    1  UNL1       -0.0018
     23 C          64.4905   88.8205   15.3497 C.3     1  UNL1        0.0940
     24 N          66.0007   90.5252   14.0993 N.am    1  UNL1       -0.2838
     25 C          64.6522   90.1183   14.6151 C.2     1  UNL1        0.2266
     26 O          63.4654   91.0091   14.3961 O.2     1  UNL1       -0.2748
     27 H          66.7797   89.9406   14.2431 H       1  UNL1        0.1549
     28 C          66.5742   93.1191   11.1510 C.ar    1  UNL1        0.1410
     29 C          66.4126   91.8214   11.8857 C.ar    1  UNL1        0.0516
     30 C          66.1623   91.8230   13.3647 C.ar    1  UNL1        0.0533
     31 C          66.0738   93.1223   14.1090 C.ar    1  UNL1        0.0149
     32 C          66.2354   94.4200   13.3743 C.ar    1  UNL1        0.0054
     33 C          66.4856   94.4184   11.8953 C.ar    1  UNL1        0.0480
     34 C          66.6473   95.7162   11.1606 C.2     1  UNL1        0.0758
     35 O          67.7443   95.8743   10.1499 O.co2   1  UNL1       -0.5445
     36 O          65.7119   96.8558   11.4367 O.co2   1  UNL1       -0.5445
     37 C          68.1480   92.6588    9.1358 C.3     1  UNL1        0.2525
     38 O          66.8244   93.1176    9.6720 O.3     1  UNL1       -0.4713
     39 C          63.0440   84.2710   12.6827 C.3     1  UNL1        0.0991
     40 C          63.8477   83.5882   11.6160 C.3     1  UNL1        0.0200
     41 C          63.9528   83.0218   10.2311 C.3     1  UNL1        0.0018
     42 C          65.1347   82.9721   11.1534 C.3     1  UNL1        0.0018
     43 C          62.0084   83.5025   13.4490 C.3     1  UNL1        0.1703
     44 S          62.1621   82.0227   13.6408 S.O2    1  UNL1       -0.0115
     45 O          62.6775   82.2563   15.0300 O.2     1  UNL1       -0.1730
     46 O          61.6466   81.7892   12.2516 O.2     1  UNL1       -0.1730
     47 C          62.3156   80.5430   13.8327 C.3     1  UNL1        0.1108
     48 C          60.8339   80.4145   14.0278 C.3     1  UNL1        0.0236
     49 C          63.7973   80.6715   13.6375 C.3     1  UNL1        0.0236
     50 C          62.4691   79.0633   14.0245 C.3     1  UNL1        0.0236
@<TRIPOS>UNITY_ATOM_ATTR
35 1
charge -1
@<TRIPOS>BOND
     1    37    38    1
     2    38    28    1
     3    28    29   ar
     4    29    30   ar
     5    30    24    1
     6    24    25   am
     7    25    26    2
     8    25    23    1
     9    23     1    1
    10     1     2    1
    11     1     3    1
    12     3     4    1
    13     4     9    1
    14     9    10   ar
    15    10    11   ar
    16    11    12   ar
    17    12    13   ar
    18    13    14    1
    19    13    15   ar
    20     4     5    1
    21     5    16    1
    22    16    17   ar
    23    17    18   ar
    24    18    19   ar
    25    19    20    1
    26    19    21   ar
    27    21    22   ar
    28     5     6    1
    29     6    39    1
    30    39    43    1
    31    43    44    1
    32    44    45    2
    33    44    46    2
    34    44    47    1
    35    47    48    1
    36    47    49    1
    37    47    50    1
    38    39    40    1
    39    40    41    1
    40    41    42    1
    41     6     7   am
    42     7     8    2
    43    30    31   ar
    44    31    32   ar
    45    32    33   ar
    46    33    34    1
    47    34    35   ar
    48    34    36   ar
    49    33    28   ar
    50     7     1    1
    51    15     9   ar
    52    22    16   ar
    53    42    40    1
    54    24    27    1
@<TRIPOS>MOLECULE
*****
 50 54 0 0 0
SMALL
GASTEIGER

@<TRIPOS>ATOM
      1 C          62.8126   88.7092   12.9540 C.3     1  UNL1        0.0780
      2 C          63.1216   89.5697   14.1431 C.3     1  UNL1        0.0096
      3 C          62.3359   88.3095   11.5891 C.3     1  UNL1        0.0154
      4 C          62.4495   86.8817   11.1433 C.3     1  UNL1        0.0452
      5 C          63.0398   85.8537   12.0624 C.3     1  UNL1        0.1018
      6 N          63.5165   86.2535   13.4273 N.am    1  UNL1       -0.2770
      7 C          63.4029   87.6812   13.8731 C.2     1  UNL1        0.2254
      8 O          63.8797   88.0809   15.2380 O.2     1  UNL1       -0.2749
      9 C          61.9727   86.4820    9.7784 C.ar    1  UNL1       -0.0197
     10 C          62.8860   85.7315    8.8550 C.ar    1  UNL1       -0.0042
     11 C          62.4093   85.3318    7.4901 C.ar    1  UNL1        0.0005
     12 C          61.0193   85.6826    7.0486 C.ar    1  UNL1        0.0114
     13 C          60.1060   86.4330    7.9720 C.ar    1  UNL1        0.0574
     14 CL         58.7161   86.7837    7.5306 Cl      1  UNL1       -0.0823
     15 C          60.5828   86.8327    9.3370 C.ar    1  UNL1        0.0072
     16 C          63.1534   84.4260   11.6166 C.ar    1  UNL1       -0.0039
     17 C          64.5002   83.8407   11.3110 C.ar    1  UNL1       -0.0018
     18 C          64.6138   82.4129   10.8652 C.ar    1  UNL1        0.0111
     19 C          63.3806   81.5706   10.7251 C.ar    1  UNL1        0.0577
     20 CL         63.4942   80.1429   10.2793 Cl      1  UNL1       -0.0822
     21 C          62.0337   82.1559   11.0307 C.ar    1  UNL1        0.0111
     22 C          61.9201   83.5837   11.4765 C.ar    1  UNL1       -0.0018
     23 C          62.3296   90.0360   12.4479 C.3     1  UNL1        0.0940
     24 N          64.3200   91.6910   12.2261 N.am    1  UNL1       -0.2838
     25 C          63.2249   90.8841   11.5940 C.2     1  UNL1        0.2266
     26 O          63.0250   90.9253   10.1079 O.2     1  UNL1       -0.2748
     27 H          64.4512   91.6639   13.2015 H       1  UNL1        0.1549
     28 C          65.8711   94.8644   10.4169 C.ar    1  UNL1        0.1410
     29 C          64.9758   94.0163   11.2708 C.ar    1  UNL1        0.0516
     30 C          65.2154   92.5391   11.3721 C.ar    1  UNL1        0.0533
     31 C          66.3501   91.9099   10.6196 C.ar    1  UNL1        0.0149
     32 C          67.2454   92.7580    9.7656 C.ar    1  UNL1        0.0054
     33 C          67.0058   94.2353    9.6643 C.ar    1  UNL1        0.0480
     34 C          67.9012   95.0834    8.8103 C.2     1  UNL1        0.0758
     35 O          67.9825   96.5623    9.0470 O.co2   1  UNL1       -0.5445
     36 O          68.7151   94.4524    7.7197 O.co2   1  UNL1       -0.5445
     37 C          64.3785   96.8559    9.6710 C.3     1  UNL1        0.2525
     38 O          65.6316   96.3417   10.3155 O.3     1  UNL1       -0.4713
     39 C          64.1069   85.2255   14.3465 C.3     1  UNL1        0.0991
     40 C          65.5962   85.0982   14.4716 C.3     1  UNL1        0.0200
     41 C          66.8768   84.4107   14.1012 C.3     1  UNL1        0.0018
     42 C          66.8951   85.5652   15.0587 C.3     1  UNL1        0.0018
     43 C          63.2078   84.3249   15.1405 C.3     1  UNL1        0.1703
     44 S          63.0058   82.9010   14.7138 S.O2    1  UNL1       -0.0115
     45 O          61.5634   83.1926   14.4234 O.2     1  UNL1       -0.1730
     46 O          64.4484   82.6095   15.0043 O.2     1  UNL1       -0.1730
     47 C          62.8039   81.4773   14.2872 C.3     1  UNL1        0.1108
     48 C          64.2869   81.3136   14.1315 C.3     1  UNL1        0.0236
     49 C          61.3211   81.6409   14.4428 C.3     1  UNL1        0.0236
     50 C          62.6021   80.0535   13.8605 C.3     1  UNL1        0.0236
@<TRIPOS>UNITY_ATOM_ATTR
35 1
charge -1
@<TRIPOS>BOND
     1    37    38    1
     2    38    28    1
     3    28    29   ar
     4    29    30   ar
     5    30    24    1
     6    24    25   am
     7    25    26    2
     8    25    23    1
     9    23     1    1
    10     1     2    1
    11     1     3    1
    12     3     4    1
    13     4     9    1
    14     9    10   ar
    15    10    11   ar
    16    11    12   ar
    17    12    13   ar
    18    13    14    1
    19    13    15   ar
    20     4     5    1
    21     5    16    1
    22    16    17   ar
    23    17    18   ar
    24    18    19   ar
    25    19    20    1
    26    19    21   ar
    27    21    22   ar
    28     5     6    1
    29     6    39    1
    30    39    43    1
    31    43    44    1
    32    44    45    2
    33    44    46    2
    34    44    47    1
    35    47    48    1
    36    47    49    1
    37    47    50    1
    38    39    40    1
    39    40    41    1
    40    41    42    1
    41     6     7   am
    42     7     8    2
    43    30    31   ar
    44    31    32   ar
    45    32    33   ar
    46    33    34    1
    47    34    35   ar
    48    34    36   ar
    49    33    28   ar
    50     7     1    1
    51    15     9   ar
    52    22    16   ar
    53    42    40    1
    54    24    27    1
@<TRIPOS>MOLECULE
*****
 50 54 0 0 0
SMALL
GASTEIGER

@<TRIPOS>ATOM
      1 C          62.7260   90.4640   10.8222 C.3     1  UNL1        0.0780
      2 C          62.3569   90.8961    9.4340 C.3     1  UNL1        0.0096
      3 C          62.6863   89.7205   12.1244 C.3     1  UNL1        0.0154
      4 C          63.6954   90.0237   13.1921 C.3     1  UNL1        0.0452
      5 C          64.7440   91.0702   12.9577 C.3     1  UNL1        0.1018
      6 N          64.7837   91.8137   11.6555 N.am    1  UNL1       -0.2770
      7 C          63.7747   91.5105   10.5877 C.2     1  UNL1        0.2254
      8 O          63.8143   92.2540    9.2856 O.2     1  UNL1       -0.2749
      9 C          63.6557   89.2802   14.4943 C.ar    1  UNL1       -0.0197
     10 C          63.1479   89.9604   15.7311 C.ar    1  UNL1       -0.0042
     11 C          63.1082   89.2169   17.0333 C.ar    1  UNL1        0.0005
     12 C          63.5763   87.7934   17.0987 C.ar    1  UNL1        0.0114
     13 C          64.0841   87.1132   15.8620 C.ar    1  UNL1        0.0574
     14 CL         64.5521   85.6896   15.9275 Cl      1  UNL1       -0.0823
     15 C          64.1238   87.8567   14.5597 C.ar    1  UNL1        0.0072
     16 C          65.7531   91.3733   14.0254 C.ar    1  UNL1       -0.0039
     17 C          67.2032   91.0660   13.7958 C.ar    1  UNL1       -0.0018
     18 C          68.2122   91.3691   14.8636 C.ar    1  UNL1        0.0111
     19 C          67.7711   91.9796   16.1608 C.ar    1  UNL1        0.0577
     20 CL         68.7801   92.2827   17.2285 Cl      1  UNL1       -0.0822
     21 C          66.3210   92.2869   16.3903 C.ar    1  UNL1        0.0111
     22 C          65.3119   91.9838   15.3226 C.ar    1  UNL1       -0.0018
     23 C          61.5492   89.5675   10.5746 C.3     1  UNL1        0.0940
     24 N          62.7626   87.3115   11.0084 N.am    1  UNL1       -0.2838
     25 C          61.5399   88.1725   11.1258 C.2     1  UNL1        0.2266
     26 O          60.3079   87.6385   11.7945 O.2     1  UNL1       -0.2748
     27 H          63.5711   87.6620   10.5695 H       1  UNL1        0.1549
     28 C          63.2669   83.3847   11.2837 C.ar    1  UNL1        0.1410
     29 C          63.2762   84.7797   10.7325 C.ar    1  UNL1        0.0516
     30 C          62.7532   85.9165   11.5597 C.ar    1  UNL1        0.0533
     31 C          62.2210   85.6583   12.9381 C.ar    1  UNL1        0.0149
     32 C          62.2117   84.2633   13.4893 C.ar    1  UNL1        0.0054
     33 C          62.7346   83.1265   12.6621 C.ar    1  UNL1        0.0480
     34 C          62.7253   81.7315   13.2134 C.2     1  UNL1        0.0758
     35 O          61.4219   81.0506   13.5092 O.co2   1  UNL1       -0.5445
     36 O          64.0195   81.0173   13.4689 O.co2   1  UNL1       -0.5445
     37 C          62.9246   81.0510   10.1944 C.3     1  UNL1        0.2525
     38 O          63.7899   82.2479   10.4566 O.3     1  UNL1       -0.4713
     39 C          65.8323   92.8602   11.4209 C.3     1  UNL1        0.0991
     40 C          66.0474   93.9466   12.4327 C.3     1  UNL1        0.0200
     41 C          66.4395   94.3744   13.8158 C.3     1  UNL1        0.0018
     42 C          66.0277   95.4002   12.8018 C.3     1  UNL1        0.0018
     43 C          66.6660   92.8204   10.1745 C.3     1  UNL1        0.1703
     44 S          67.0417   94.0971    9.4823 S.O2    1  UNL1       -0.0115
     45 O          65.6074   94.5351    9.5116 O.2     1  UNL1       -0.1730
     46 O          68.4761   93.6591    9.4530 O.2     1  UNL1       -0.1730
     47 C          67.4173   95.3737    8.7902 C.3     1  UNL1        0.1108
     48 C          66.9278   96.1582    9.9713 C.3     1  UNL1        0.0236
     49 C          67.9068   94.5893    7.6091 C.3     1  UNL1        0.0236
     50 C          67.7930   96.6504    8.0981 C.3     1  UNL1        0.0236
@<TRIPOS>UNITY_ATOM_ATTR
35 1
charge -1
@<TRIPOS>BOND
     1    37    38    1
     2    38    28    1
     3    28    29   ar
     4    29    30   ar
     5    30    24    1
     6    24    25   am
     7    25    26    2
     8    25    23    1
     9    23     1    1
    10     1     2    1
    11     1     3    1
    12     3     4    1
    13     4     9    1
    14     9    10   ar
    15    10    11   ar
    16    11    12   ar
    17    12    13   ar
    18    13    14    1
    19    13    15   ar
    20     4     5    1
    21     5    16    1
    22    16    17   ar
    23    17    18   ar
    24    18    19   ar
    25    19    20    1
    26    19    21   ar
    27    21    22   ar
    28     5     6    1
    29     6    39    1
    30    39    43    1
    31    43    44    1
    32    44    45    2
    33    44    46    2
    34    44    47    1
    35    47    48    1
    36    47    49    1
    37    47    50    1
    38    39    40    1
    39    40    41    1
    40    41    42    1
    41     6     7   am
    42     7     8    2
    43    30    31   ar
    44    31    32   ar
    45    32    33   ar
    46    33    34    1
    47    34    35   ar
    48    34    36   ar
    49    33    28   ar
    50     7     1    1
    51    15     9   ar
    52    22    16   ar
    53    42    40    1
    54    24    27    1
@<TRIPOS>MOLECULE
*****
 50 54 0 0 0
SMALL
GASTEIGER

@<TRIPOS>ATOM
      1 C          62.8061   88.6735   12.9512 C.3     1  UNL1        0.0780
      2 C          63.1178   89.5315   14.1413 C.3     1  UNL1        0.0096
      3 C          62.3253   88.2764   11.5869 C.3     1  UNL1        0.0154
      4 C          62.4396   86.8500   11.1371 C.3     1  UNL1        0.0452
      5 C          63.0347   85.8207   12.0516 C.3     1  UNL1        0.1018
      6 N          63.5155   86.2177   13.4158 N.am    1  UNL1       -0.2770
      7 C          63.4012   87.6442   13.8656 C.2     1  UNL1        0.2254
      8 O          63.8820   88.0412   15.2298 O.2     1  UNL1       -0.2749
      9 C          61.9588   86.4530    9.7729 C.ar    1  UNL1       -0.0197
     10 C          62.8714   85.7098    8.8429 C.ar    1  UNL1       -0.0042
     11 C          62.3906   85.3127    7.4787 C.ar    1  UNL1        0.0005
     12 C          60.9973   85.6589    7.0444 C.ar    1  UNL1        0.0114
     13 C          60.0846   86.4020    7.9743 C.ar    1  UNL1        0.0574
     14 CL         58.6912   86.7482    7.5400 Cl      1  UNL1       -0.0823
     15 C          60.5654   86.7991    9.3386 C.ar    1  UNL1        0.0072
     16 C          63.1490   84.3942   11.6018 C.ar    1  UNL1       -0.0039
     17 C          64.4946   83.8153   11.2789 C.ar    1  UNL1       -0.0018
     18 C          64.6089   82.3888   10.8291 C.ar    1  UNL1        0.0111
     19 C          63.3777   81.5415   10.7023 C.ar    1  UNL1        0.0577
     20 CL         63.4920   80.1150   10.2525 Cl      1  UNL1       -0.0822
     21 C          62.0322   82.1204   11.0252 C.ar    1  UNL1        0.0111
     22 C          61.9178   83.5469   11.4750 C.ar    1  UNL1       -0.0018
     23 C          62.3192   90.0008   12.4500 C.3     1  UNL1        0.0940
     24 N          64.2220   91.7620   12.2839 N.am    1  UNL1       -0.2838
     25 C          63.2203   90.8651   11.6188 C.2     1  UNL1        0.2266
     26 O          63.1198   90.8326   10.1225 O.2     1  UNL1       -0.2748
     27 H          64.2880   91.7833   13.2659 H       1  UNL1        0.1549
     28 C          67.4037   93.0168   10.2708 C.ar    1  UNL1        0.1410
     29 C          66.5025   92.1526   11.1021 C.ar    1  UNL1        0.0516
     30 C          65.1232   92.6263   11.4526 C.ar    1  UNL1        0.0533
     31 C          64.6449   93.9642   10.9719 C.ar    1  UNL1        0.0149
     32 C          65.5460   94.8285   10.1407 C.ar    1  UNL1        0.0054
     33 C          66.9254   94.3548    9.7901 C.ar    1  UNL1        0.0480
     34 C          67.8266   95.2191    8.9589 C.2     1  UNL1        0.0758
     35 O          68.1778   96.6013    9.4235 O.co2   1  UNL1       -0.5445
     36 O          68.3764   94.7010    7.6630 O.co2   1  UNL1       -0.5445
     37 C          69.0323   91.8679    8.6043 C.3     1  UNL1        0.2525
     38 O          68.7831   92.5431    9.9203 O.3     1  UNL1       -0.4713
     39 C          64.1107   85.1884   14.3303 C.3     1  UNL1        0.0991
     40 C          65.6006   85.0605   14.4470 C.3     1  UNL1        0.0200
     41 C          66.8727   84.3397   14.1119 C.3     1  UNL1        0.0018
     42 C          66.9092   85.5596   14.9840 C.3     1  UNL1        0.0018
     43 C          63.2157   84.2870   15.1283 C.3     1  UNL1        0.1703
     44 S          63.0079   82.8649   14.6988 S.O2    1  UNL1       -0.0115
     45 O          61.5647   83.1609   14.4171 O.2     1  UNL1       -0.1730
     46 O          64.4513   82.5690   14.9804 O.2     1  UNL1       -0.1730
     47 C          62.8001   81.4429   14.2693 C.3     1  UNL1        0.1108
     48 C          64.2831   81.2699   14.1243 C.3     1  UNL1        0.0236
     49 C          61.3172   81.6158   14.4143 C.3     1  UNL1        0.0236
     50 C          62.5924   80.0208   13.8398 C.3     1  UNL1        0.0236
@<TRIPOS>UNITY_ATOM_ATTR
35 1
charge -1
@<TRIPOS>BOND
     1    37    38    1
     2    38    28    1
     3    28    29   ar
     4    29    30   ar
     5    30    24    1
     6    24    25   am
     7    25    26    2
     8    25    23    1
     9    23     1    1
    10     1     2    1
    11     1     3    1
    12     3     4    1
    13     4     9    1
    14     9    10   ar
    15    10    11   ar
    16    11    12   ar
    17    12    13   ar
    18    13    14    1
    19    13    15   ar
    20     4     5    1
    21     5    16    1
    22    16    17   ar
    23    17    18   ar
    24    18    19   ar
    25    19    20    1
    26    19    21   ar
    27    21    22   ar
    28     5     6    1
    29     6    39    1
    30    39    43    1
    31    43    44    1
    32    44    45    2
    33    44    46    2
    34    44    47    1
    35    47    48    1
    36    47    49    1
    37    47    50    1
    38    39    40    1
    39    40    41    1
    40    41    42    1
    41     6     7   am
    42     7     8    2
    43    30    31   ar
    44    31    32   ar
    45    32    33   ar
    46    33    34    1
    47    34    35   ar
    48    34    36   ar
    49    33    28   ar
    50     7     1    1
    51    15     9   ar
    52    22    16   ar
    53    42    40    1
    54    24    27    1
