@<TRIPOS>MOLECULE
*****
 46 51 0 0 0
SMALL
GASTEIGER

@<TRIPOS>ATOM
      1 O          66.3068   90.3525   14.4946 O.2     1  UNL1       -0.2863
      2 C          65.2459   90.7642   13.5174 C.ar    1  UNL1        0.2046
      3 C          63.8730   90.1663   13.6047 C.ar    1  UNL1        0.0795
      4 C          62.8121   90.5780   12.6275 C.ar    1  UNL1        0.1484
      5 O          63.1241   91.5876   11.5630 O.2     1  UNL1       -0.4531
      6 C          64.4970   92.1856   11.4756 C.ar    1  UNL1        0.1543
      7 C          64.8090   93.1952   10.4110 C.ar    1  UNL1        0.0744
      8 C          66.1819   93.7931   10.3237 C.ar    1  UNL1        0.1397
      9 O          66.4939   94.8027    9.2591 O.3     1  UNL1       -0.5053
     10 C          67.2428   93.3814   11.3009 C.ar    1  UNL1        0.0735
     11 C          66.9308   92.3718   12.3655 C.ar    1  UNL1        0.1427
     12 O          67.9917   91.9601   13.3427 O.3     1  UNL1       -0.5052
     13 C          65.5579   91.7739   12.4528 C.ar    1  UNL1        0.1073
     14 H          65.8312   95.0599    8.6486 H       1  UNL1        0.2922
     15 H          68.8493   92.3336   13.2881 H       1  UNL1        0.2922
     16 C          63.5610   89.1566   14.6693 C.ar    1  UNL1        0.0745
     17 C          63.5601   89.5646   16.1128 C.ar    1  UNL1        0.1397
     18 O          63.6973   90.2510   16.4944 O.3     1  UNL1       -0.5053
     19 C          63.2481   88.5550   17.1773 C.ar    1  UNL1        0.0735
     20 C          62.9370   87.1374   16.7984 C.ar    1  UNL1        0.1427
     21 O          62.6249   86.1277   17.8630 O.3     1  UNL1       -0.5052
     22 C          62.9379   86.7294   15.3549 C.ar    1  UNL1        0.1073
     23 C          62.6268   85.3117   14.9760 C.ar    1  UNL1        0.2046
     24 O          62.3148   84.3021   16.0405 O.2     1  UNL1       -0.2863
     25 C          62.6277   84.9038   13.5326 C.ar    1  UNL1        0.0797
     26 C          62.9398   85.9134   12.4680 C.ar    1  UNL1        0.1484
     27 O          63.2508   87.3311   12.8469 O.2     1  UNL1       -0.4531
     28 C          63.2499   87.7390   14.2904 C.ar    1  UNL1        0.1543
     29 H          63.9134   91.0222   16.0082 H       1  UNL1        0.2922
     30 H          62.6244   86.3826   18.7646 H       1  UNL1        0.2922
     31 C          62.9407   85.5054   11.0246 C.ar    1  UNL1        0.0349
     32 C          63.6179   84.2346   10.6048 C.ar    1  UNL1        0.0061
     33 C          63.6188   83.8266    9.1613 C.ar    1  UNL1        0.0367
     34 C          62.9425   84.6895    8.1377 C.ar    1  UNL1        0.1337
     35 O          62.9434   84.2815    6.6943 O.3     1  UNL1       -0.5055
     36 C          62.2653   85.9604    8.5574 C.ar    1  UNL1        0.0367
     37 C          62.2643   86.3684   10.0008 C.ar    1  UNL1        0.0061
     38 H          63.3665   83.4876    6.4321 H       1  UNL1        0.2922
     39 C          61.4392   89.9800   12.7149 C.ar    1  UNL1        0.0349
     40 C          60.7990   89.7641   14.0541 C.ar    1  UNL1        0.0061
     41 C          59.4261   89.1662   14.1414 C.ar    1  UNL1        0.0367
     42 C          58.6934   88.7842   12.8895 C.ar    1  UNL1        0.1337
     43 O          57.3205   88.1862   12.9769 O.3     1  UNL1       -0.5055
     44 C          59.3336   89.0000   11.5503 C.ar    1  UNL1        0.0367
     45 C          60.7065   89.5980   11.4630 C.ar    1  UNL1        0.0061
     46 H          56.9206   88.0513   13.8135 H       1  UNL1        0.2922
@<TRIPOS>BOND
     1     1     2    2
     2     2     3   ar
     3     3    16    1
     4    16    17   ar
     5    17    18    1
     6    17    19   ar
     7    19    20   ar
     8    20    21    1
     9    20    22   ar
    10    22    23   ar
    11    23    24    2
    12    23    25   ar
    13    25    26   ar
    14    26    31    1
    15    31    32   ar
    16    32    33   ar
    17    33    34   ar
    18    34    35    1
    19    34    36   ar
    20    36    37   ar
    21    26    27   ar
    22    27    28   ar
    23     3     4   ar
    24     4    39    1
    25    39    40   ar
    26    40    41   ar
    27    41    42   ar
    28    42    43    1
    29    42    44   ar
    30    44    45   ar
    31     4     5   ar
    32     5     6   ar
    33     6     7   ar
    34     7     8   ar
    35     8     9    1
    36     8    10   ar
    37    10    11   ar
    38    11    12    1
    39    11    13   ar
    40    13     2   ar
    41    28    16   ar
    42    45    39   ar
    43    13     6   ar
    44    28    22   ar
    45    37    31   ar
    46    18    29    1
    47    21    30    1
    48    35    38    1
    49    43    46    1
    50     9    14    1
    51    12    15    1
@<TRIPOS>MOLECULE
*****
 46 51 0 0 0
SMALL
GASTEIGER

@<TRIPOS>ATOM
      1 O          63.9301   87.2830   13.2825 O.2     1  UNL1       -0.2863
      2 C          63.4934   86.2593   14.2881 C.ar    1  UNL1        0.2046
      3 C          63.2716   84.8379   13.8636 C.ar    1  UNL1        0.0795
      4 C          62.8349   83.8142   14.8692 C.ar    1  UNL1        0.1484
      5 O          62.6200   84.2119   16.2994 O.2     1  UNL1       -0.4531
      6 C          62.8418   85.6334   16.7241 C.ar    1  UNL1        0.1543
      7 C          62.6269   86.0311   18.1543 C.ar    1  UNL1        0.0744
      8 C          62.8487   87.4525   18.5789 C.ar    1  UNL1        0.1397
      9 O          62.6338   87.8503   20.0092 O.3     1  UNL1       -0.5053
     10 C          63.2854   88.4762   17.5732 C.ar    1  UNL1        0.0735
     11 C          63.5003   88.0785   16.1430 C.ar    1  UNL1        0.1427
     12 O          63.9370   89.1022   15.1374 O.3     1  UNL1       -0.5052
     13 C          63.2785   86.6571   15.7184 C.ar    1  UNL1        0.1073
     14 H          62.3611   87.2109   20.6374 H       1  UNL1        0.2922
     15 H          64.0756   89.9901   15.4026 H       1  UNL1        0.2922
     16 C          63.4865   84.4401   12.4333 C.ar    1  UNL1        0.0745
     17 C          64.3101   83.2296   12.1071 C.ar    1  UNL1        0.1397
     18 O          64.7010   82.6911   12.5460 O.3     1  UNL1       -0.5053
     19 C          64.5249   82.8319   10.6769 C.ar    1  UNL1        0.0735
     20 C          63.9162   83.6446    9.5728 C.ar    1  UNL1        0.1427
     21 O          64.1311   83.2468    8.1425 O.3     1  UNL1       -0.5052
     22 C          63.0927   84.8551    9.8990 C.ar    1  UNL1        0.1073
     23 C          62.4840   85.6679    8.7949 C.ar    1  UNL1        0.2046
     24 O          62.6989   85.2701    7.3647 O.2     1  UNL1       -0.2863
     25 C          61.6605   86.8784    9.1211 C.ar    1  UNL1        0.0797
     26 C          61.4456   87.2762   10.5514 C.ar    1  UNL1        0.1484
     27 O          62.0543   86.4634   11.6555 O.2     1  UNL1       -0.4531
     28 C          62.8779   85.2528   11.3292 C.ar    1  UNL1        0.1543
     29 H          64.6958   82.7556   13.4808 H       1  UNL1        0.2922
     30 H          64.6456   82.4907    7.9388 H       1  UNL1        0.2922
     31 C          60.6221   88.4867   10.8776 C.ar    1  UNL1        0.0349
     32 C          60.9031   89.7916   10.1934 C.ar    1  UNL1        0.0061
     33 C          60.0795   91.0021   10.5196 C.ar    1  UNL1        0.0367
     34 C          58.9749   90.9077   11.5300 C.ar    1  UNL1        0.1337
     35 O          58.1514   92.1182   11.8562 O.3     1  UNL1       -0.5055
     36 C          58.6939   89.6027   12.2142 C.ar    1  UNL1        0.0367
     37 C          59.5174   88.3922   11.8880 C.ar    1  UNL1        0.0061
     38 H          58.3269   92.9333   11.4288 H       1  UNL1        0.2922
     39 C          62.6131   82.3927   14.4446 C.ar    1  UNL1        0.0349
     40 C          63.7606   81.4268   14.4290 C.ar    1  UNL1        0.0061
     41 C          63.5388   80.0054   14.0044 C.ar    1  UNL1        0.0367
     42 C          62.1695   79.5499   13.5953 C.ar    1  UNL1        0.1337
     43 O          61.9477   78.1284   13.1707 O.3     1  UNL1       -0.5055
     44 C          61.0219   80.5157   13.6109 C.ar    1  UNL1        0.0367
     45 C          61.2438   81.9371   14.0355 C.ar    1  UNL1        0.0061
     46 H          62.6645   77.5250   13.1610 H       1  UNL1        0.2922
@<TRIPOS>BOND
     1     1     2    2
     2     2     3   ar
     3     3    16    1
     4    16    17   ar
     5    17    18    1
     6    17    19   ar
     7    19    20   ar
     8    20    21    1
     9    20    22   ar
    10    22    23   ar
    11    23    24    2
    12    23    25   ar
    13    25    26   ar
    14    26    31    1
    15    31    32   ar
    16    32    33   ar
    17    33    34   ar
    18    34    35    1
    19    34    36   ar
    20    36    37   ar
    21    26    27   ar
    22    27    28   ar
    23     3     4   ar
    24     4    39    1
    25    39    40   ar
    26    40    41   ar
    27    41    42   ar
    28    42    43    1
    29    42    44   ar
    30    44    45   ar
    31     4     5   ar
    32     5     6   ar
    33     6     7   ar
    34     7     8   ar
    35     8     9    1
    36     8    10   ar
    37    10    11   ar
    38    11    12    1
    39    11    13   ar
    40    13     2   ar
    41    28    16   ar
    42    45    39   ar
    43    13     6   ar
    44    28    22   ar
    45    37    31   ar
    46    18    29    1
    47    21    30    1
    48    35    38    1
    49    43    46    1
    50     9    14    1
    51    12    15    1
@<TRIPOS>MOLECULE
*****
 46 51 0 0 0
SMALL
GASTEIGER

@<TRIPOS>ATOM
      1 O          64.8364   91.0072   10.4847 O.2     1  UNL1       -0.2863
      2 C          64.2041   90.9687   11.8444 C.ar    1  UNL1        0.2046
      3 C          62.8508   90.3476   12.0249 C.ar    1  UNL1        0.0795
      4 C          62.2185   90.3091   13.3846 C.ar    1  UNL1        0.1484
      5 O          62.9397   90.8916   14.5638 O.2     1  UNL1       -0.4531
      6 C          64.2931   91.5127   14.3833 C.ar    1  UNL1        0.1543
      7 C          65.0143   92.0953   15.5625 C.ar    1  UNL1        0.0744
      8 C          66.3676   92.7164   15.3820 C.ar    1  UNL1        0.1397
      9 O          67.0888   93.2990   16.5612 O.3     1  UNL1       -0.5053
     10 C          66.9998   92.7549   14.0223 C.ar    1  UNL1        0.0735
     11 C          66.2787   92.1723   12.8431 C.ar    1  UNL1        0.1427
     12 O          66.9109   92.2109   11.4834 O.3     1  UNL1       -0.5052
     13 C          64.9253   91.5513   13.0236 C.ar    1  UNL1        0.1073
     14 H          66.6939   93.2749   17.4106 H       1  UNL1        0.2922
     15 H          67.7563   92.5989   11.3706 H       1  UNL1        0.2922
     16 C          62.1296   89.7650   10.8457 C.ar    1  UNL1        0.0745
     17 C          61.5351   90.6704    9.8079 C.ar    1  UNL1        0.1397
     18 O          61.5027   91.4616    9.7163 O.3     1  UNL1       -0.5053
     19 C          60.8139   90.0877    8.6288 C.ar    1  UNL1        0.0735
     20 C          60.6872   88.5998    8.4874 C.ar    1  UNL1        0.1427
     21 O          59.9660   88.0172    7.3081 O.3     1  UNL1       -0.5052
     22 C          61.2817   87.6945    9.5251 C.ar    1  UNL1        0.1073
     23 C          61.1550   86.2065    9.3836 C.ar    1  UNL1        0.2046
     24 O          60.4339   85.6239    8.2045 O.2     1  UNL1       -0.2863
     25 C          61.7495   85.3012   10.4214 C.ar    1  UNL1        0.0797
     26 C          62.4707   85.8838   11.6006 C.ar    1  UNL1        0.1484
     27 O          62.5974   87.3717   11.7420 O.2     1  UNL1       -0.4531
     28 C          62.0029   88.2771   10.7042 C.ar    1  UNL1        0.1543
     29 H          61.8990   92.0236   10.3527 H       1  UNL1        0.2922
     30 H          59.5946   88.5828    6.6599 H       1  UNL1        0.2922
     31 C          63.0652   84.9785   12.6383 C.ar    1  UNL1        0.0349
     32 C          62.8682   83.4947   12.5408 C.ar    1  UNL1        0.0061
     33 C          63.4627   82.5893   13.5786 C.ar    1  UNL1        0.0367
     34 C          64.2542   83.1678   14.7139 C.ar    1  UNL1        0.1337
     35 O          64.8487   82.2625   15.7516 O.3     1  UNL1       -0.5055
     36 C          64.4512   84.6516   14.8114 C.ar    1  UNL1        0.0367
     37 C          63.8568   85.5569   13.7737 C.ar    1  UNL1        0.0061
     38 H          64.7256   81.3356   15.6907 H       1  UNL1        0.2922
     39 C          60.8651   89.6880   13.5651 C.ar    1  UNL1        0.0349
     40 C          60.4711   89.1224   14.8973 C.ar    1  UNL1        0.0061
     41 C          59.1177   88.5013   15.0777 C.ar    1  UNL1        0.0367
     42 C          58.1584   88.4458   13.9259 C.ar    1  UNL1        0.1337
     43 O          56.8049   87.8247   14.1064 O.3     1  UNL1       -0.5055
     44 C          58.5524   89.0114   12.5937 C.ar    1  UNL1        0.0367
     45 C          59.9058   89.6325   12.4133 C.ar    1  UNL1        0.0061
     46 H          56.5588   87.4714   14.9386 H       1  UNL1        0.2922
@<TRIPOS>BOND
     1     1     2    2
     2     2     3   ar
     3     3    16    1
     4    16    17   ar
     5    17    18    1
     6    17    19   ar
     7    19    20   ar
     8    20    21    1
     9    20    22   ar
    10    22    23   ar
    11    23    24    2
    12    23    25   ar
    13    25    26   ar
    14    26    31    1
    15    31    32   ar
    16    32    33   ar
    17    33    34   ar
    18    34    35    1
    19    34    36   ar
    20    36    37   ar
    21    26    27   ar
    22    27    28   ar
    23     3     4   ar
    24     4    39    1
    25    39    40   ar
    26    40    41   ar
    27    41    42   ar
    28    42    43    1
    29    42    44   ar
    30    44    45   ar
    31     4     5   ar
    32     5     6   ar
    33     6     7   ar
    34     7     8   ar
    35     8     9    1
    36     8    10   ar
    37    10    11   ar
    38    11    12    1
    39    11    13   ar
    40    13     2   ar
    41    28    16   ar
    42    45    39   ar
    43    13     6   ar
    44    28    22   ar
    45    37    31   ar
    46    18    29    1
    47    21    30    1
    48    35    38    1
    49    43    46    1
    50     9    14    1
    51    12    15    1
