@<TRIPOS>MOLECULE
*****
 42 47 0 0 0
SMALL
GASTEIGER

@<TRIPOS>ATOM
      1 N          63.1601   90.3266   14.6835 N.ar    1  UNL1       -0.2634
      2 C          62.4627   90.0193   13.3915 C.ar    1  UNL1        0.3328
      3 O          61.3375   89.0447   13.2070 O.2     1  UNL1       -0.2462
      4 N          63.0882   90.8577   12.3164 N.ar    1  UNL1       -0.2739
      5 C          62.6982   90.8687   10.8680 C.3     1  UNL1        0.1353
      6 C          64.1721   91.6831   12.9439 C.ar    1  UNL1        0.1345
      7 C          64.2166   91.3549   14.4069 C.ar    1  UNL1        0.1692
      8 N          65.2132   92.0348   15.2981 N.ar    1  UNL1       -0.1948
      9 C          66.1655   93.0429   14.7264 C.ar    1  UNL1        0.2176
     10 N          67.1622   93.7228   15.6177 N.pl3   1  UNL1       -0.3273
     11 N          66.1211   93.3711   13.2634 N.ar    1  UNL1       -0.1794
     12 N          66.9276   94.3150   12.4216 N.ar    1  UNL1       -0.1398
     13 C          66.4293   94.2185   11.0101 C.ar    1  UNL1        0.2076
     14 N          65.3149   93.2149   10.9795 N.ar    1  UNL1       -0.2026
     15 C          65.1244   92.6912   12.3722 C.ar    1  UNL1        0.1871
     16 H          67.1914   93.5074   16.5779 H       1  UNL1        0.1452
     17 H          67.7873   94.3845   15.2425 H       1  UNL1        0.1452
     18 C          66.9535   94.9900    9.8354 C.ar    1  UNL1        0.1483
     19 N          67.3652   94.4121    8.5138 N.ar    1  UNL1       -0.2336
     20 C          67.8241   95.5398    7.6376 C.ar    1  UNL1        0.1066
     21 C          67.6959   96.8147    8.4176 C.ar    1  UNL1        0.0576
     22 S          67.1578   96.4748    9.7760 S.2     1  UNL1       -0.0628
     23 C          62.8546   89.7132   16.0179 C.3     1  UNL1        0.1293
     24 C          63.7035   88.5921   16.5400 C.3     1  UNL1        0.0972
     25 N          63.2473   84.4478   14.8472 N.pl3   1  UNL1       -0.3046
     26 C          64.1037   85.4564   14.1407 C.3     1  UNL1        0.1081
     27 C          64.2558   86.8378   14.7049 C.3     1  UNL1        0.0939
     28 N          63.5514   87.2106   15.9757 N.3     1  UNL1       -0.2681
     29 C          62.6950   86.2021   16.6823 C.3     1  UNL1        0.0939
     30 C          62.5429   84.8206   16.1180 C.3     1  UNL1        0.1081
     31 C          62.7909   80.3033   13.1544 C.ar    1  UNL1        0.1660
     32 C          64.1188   80.9979   13.0896 C.ar    1  UNL1        0.0405
     33 C          64.2709   82.3794   13.6538 C.ar    1  UNL1        0.0178
     34 C          63.0952   83.0663   14.2830 C.ar    1  UNL1        0.0504
     35 C          61.7673   82.3716   14.3478 C.ar    1  UNL1        0.0473
     36 C          61.6152   80.9901   13.7835 C.ar    1  UNL1        0.1750
     37 F          60.2873   80.2955   13.8484 F       1  UNL1       -0.2009
     38 O          62.6388   78.9218   12.5901 O.3     1  UNL1       -0.4705
     39 C          62.4603   78.7304   11.1132 C.3     1  UNL1        0.2374
     40 C          63.1881   79.6191   10.1485 C.3     1  UNL1        0.1894
     41 C          63.9169   82.1115   10.0638 C.3     1  UNL1        0.1743
     42 O          62.8338   81.0737   10.0550 O.3     1  UNL1       -0.3471
@<TRIPOS>BOND
     1    41    42    1
     2    42    40    1
     3    40    39    1
     4    39    38    1
     5    38    31    1
     6    31    32   ar
     7    32    33   ar
     8    33    34   ar
     9    34    25    1
    10    25    26    1
    11    26    27    1
    12    27    28    1
    13    28    24    1
    14    24    23    1
    15    23     1    1
    16     1     2   ar
    17     2     3    2
    18     2     4   ar
    19     4     5    1
    20     4     6   ar
    21     6     7   ar
    22     7     8   ar
    23     8     9   ar
    24     9    10    1
    25     9    11   ar
    26    11    12   ar
    27    12    13   ar
    28    13    18    1
    29    18    19   ar
    30    19    20   ar
    31    20    21   ar
    32    21    22   ar
    33    13    14   ar
    34    14    15   ar
    35    28    29    1
    36    29    30    1
    37    34    35   ar
    38    35    36   ar
    39    36    37    1
    40    36    31   ar
    41    30    25    1
    42     7     1   ar
    43    15    11   ar
    44    15     6   ar
    45    22    18   ar
    46    10    16    1
    47    10    17    1
@<TRIPOS>MOLECULE
*****
 42 47 0 0 0
SMALL
GASTEIGER

@<TRIPOS>ATOM
      1 N          63.6632   90.7960   15.8394 N.ar    1  UNL1       -0.2634
      2 C          64.6616   91.7295   16.4573 C.ar    1  UNL1        0.3328
      3 O          64.9150   91.9034   17.9255 O.2     1  UNL1       -0.2462
      4 N          65.3621   92.4586   15.3493 N.ar    1  UNL1       -0.2739
      5 C          66.4390   93.4895   15.5149 C.3     1  UNL1        0.1353
      6 C          64.7966   91.9757   14.0465 C.ar    1  UNL1        0.1345
      7 C          63.7467   90.9482   14.3494 C.ar    1  UNL1        0.1692
      8 N          63.0022   90.2839   13.2295 N.ar    1  UNL1       -0.1948
      9 C          63.3078   90.6470   11.8064 C.ar    1  UNL1        0.2176
     10 N          62.5633   89.9826   10.6864 N.pl3   1  UNL1       -0.3273
     11 N          64.3577   91.6745   11.5036 N.ar    1  UNL1       -0.1794
     12 N          64.8720   92.2328   10.2098 N.ar    1  UNL1       -0.1398
     13 C          65.9342   93.2422   10.5303 C.ar    1  UNL1        0.2076
     14 N          66.0765   93.3078   12.0221 N.ar    1  UNL1       -0.2026
     15 C          65.1022   92.3389   12.6236 C.ar    1  UNL1        0.1871
     16 H          61.8741   89.3082   10.8853 H       1  UNL1        0.1452
     17 H          62.7638   90.2210    9.7525 H       1  UNL1        0.1452
     18 C          66.7168   94.0452    9.5339 C.ar    1  UNL1        0.1483
     19 N          67.7597   93.5125    8.5965 N.ar    1  UNL1       -0.2336
     20 C          68.2814   94.6598    7.7832 C.ar    1  UNL1        0.1066
     21 C          67.5610   95.9016    8.2179 C.ar    1  UNL1        0.0576
     22 S          66.5940   95.5217    9.2999 S.2     1  UNL1       -0.0628
     23 C          62.7429   89.8725   16.5812 C.3     1  UNL1        0.1293
     24 C          63.2940   88.6610   17.2732 C.3     1  UNL1        0.0972
     25 N          63.0967   84.6387   15.2654 N.pl3   1  UNL1       -0.3046
     26 C          62.2882   84.9004   16.5015 C.3     1  UNL1        0.1081
     27 C          62.3539   86.2411   17.1708 C.3     1  UNL1        0.0939
     28 N          63.2282   87.3202   16.6039 N.3     1  UNL1       -0.2681
     29 C          64.0367   87.0586   15.3679 C.3     1  UNL1        0.0939
     30 C          63.9709   85.7178   14.6986 C.3     1  UNL1        0.1081
     31 C          62.8995   80.6162   13.2575 C.ar    1  UNL1        0.1660
     32 C          64.1980   81.3652   13.3105 C.ar    1  UNL1        0.0405
     33 C          64.2638   82.7060   13.9798 C.ar    1  UNL1        0.0178
     34 C          63.0310   83.2979   14.5961 C.ar    1  UNL1        0.0504
     35 C          61.7324   82.5489   14.5431 C.ar    1  UNL1        0.0473
     36 C          61.6667   81.2081   13.8739 C.ar    1  UNL1        0.1750
     37 F          60.3681   80.4592   13.8209 F       1  UNL1       -0.2009
     38 O          62.8337   79.2754   12.5883 O.3     1  UNL1       -0.4705
     39 C          62.5099   79.1819   11.1267 C.3     1  UNL1        0.2374
     40 C          63.2305   80.0539   10.1416 C.3     1  UNL1        0.1894
     41 C          64.1545   82.4801   10.2424 C.3     1  UNL1        0.1743
     42 O          62.9942   81.5352   10.1380 O.3     1  UNL1       -0.3471
@<TRIPOS>BOND
     1    41    42    1
     2    42    40    1
     3    40    39    1
     4    39    38    1
     5    38    31    1
     6    31    32   ar
     7    32    33   ar
     8    33    34   ar
     9    34    25    1
    10    25    26    1
    11    26    27    1
    12    27    28    1
    13    28    24    1
    14    24    23    1
    15    23     1    1
    16     1     2   ar
    17     2     3    2
    18     2     4   ar
    19     4     5    1
    20     4     6   ar
    21     6     7   ar
    22     7     8   ar
    23     8     9   ar
    24     9    10    1
    25     9    11   ar
    26    11    12   ar
    27    12    13   ar
    28    13    18    1
    29    18    19   ar
    30    19    20   ar
    31    20    21   ar
    32    21    22   ar
    33    13    14   ar
    34    14    15   ar
    35    28    29    1
    36    29    30    1
    37    34    35   ar
    38    35    36   ar
    39    36    37    1
    40    36    31   ar
    41    30    25    1
    42     7     1   ar
    43    15    11   ar
    44    15     6   ar
    45    22    18   ar
    46    10    16    1
    47    10    17    1
@<TRIPOS>MOLECULE
*****
 42 47 0 0 0
SMALL
GASTEIGER

@<TRIPOS>ATOM
      1 N          63.6301   90.4798   16.0384 N.ar    1  UNL1       -0.2634
      2 C          64.5847   91.4501   16.6686 C.ar    1  UNL1        0.3328
      3 O          64.8310   91.6157   18.1389 O.2     1  UNL1       -0.2462
      4 N          65.2496   92.2258   15.5704 N.ar    1  UNL1       -0.2739
      5 C          66.2777   93.3032   15.7497 C.3     1  UNL1        0.1353
      6 C          64.7060   91.7348   14.2614 C.ar    1  UNL1        0.1345
      7 C          63.7050   90.6557   14.5506 C.ar    1  UNL1        0.1692
      8 N          62.9913   89.9728   13.4219 N.ar    1  UNL1       -0.1948
      9 C          63.2783   90.3690   12.0039 C.ar    1  UNL1        0.2176
     10 N          62.5645   89.6859   10.8752 N.pl3   1  UNL1       -0.3273
     11 N          64.2793   91.4481   11.7147 N.ar    1  UNL1       -0.1794
     12 N          64.7659   92.0470   10.4285 N.ar    1  UNL1       -0.1398
     13 C          65.7805   93.1002   10.7623 C.ar    1  UNL1        0.2076
     14 N          65.9209   93.1521   12.2548 N.ar    1  UNL1       -0.2026
     15 C          64.9931   92.1310   12.8434 C.ar    1  UNL1        0.1871
     16 H          61.9075   88.9777   11.0651 H       1  UNL1        0.1452
     17 H          62.7529   89.9459    9.9445 H       1  UNL1        0.1452
     18 C          66.5242   93.9520    9.7767 C.ar    1  UNL1        0.1483
     19 N          66.1944   95.3687    9.4104 N.ar    1  UNL1       -0.2336
     20 C          67.1946   95.8289    8.3917 C.ar    1  UNL1        0.1066
     21 C          68.1425   94.6966    8.1282 C.ar    1  UNL1        0.0576
     22 S          67.7281   93.5365    8.9842 S.2     1  UNL1       -0.0628
     23 C          62.7543   89.5046   16.7679 C.3     1  UNL1        0.1293
     24 C          63.3024   88.1730   17.1881 C.3     1  UNL1        0.0972
     25 N          63.1830   84.6906   14.3407 N.pl3   1  UNL1       -0.3046
     26 C          62.3186   84.6870   15.5665 C.3     1  UNL1        0.1081
     27 C          62.3583   85.8478   16.5157 C.3     1  UNL1        0.0939
     28 N          63.2626   87.0122   16.2390 N.3     1  UNL1       -0.2681
     29 C          64.1269   87.0158   15.0131 C.3     1  UNL1        0.0939
     30 C          64.0871   85.8550   14.0640 C.3     1  UNL1        0.1081
     31 C          63.0636   81.2081   11.4931 C.ar    1  UNL1        0.1660
     32 C          62.3631   81.1192   12.8165 C.ar    1  UNL1        0.0405
     33 C          62.4029   82.2800   13.7657 C.ar    1  UNL1        0.0178
     34 C          63.1432   83.5298   13.3915 C.ar    1  UNL1        0.0504
     35 C          63.8436   83.6187   12.0681 C.ar    1  UNL1        0.0473
     36 C          63.8038   82.4579   11.1189 C.ar    1  UNL1        0.1750
     37 F          64.5043   82.5469    9.7955 F       1  UNL1       -0.2009
     38 O          63.0238   80.0473   10.5439 O.3     1  UNL1       -0.4705
     39 C          62.7340   78.6682   11.0576 C.3     1  UNL1        0.2374
     40 C          62.7414   77.5003   10.1162 C.3     1  UNL1        0.1894
     41 C          64.8442   76.3208    9.1482 C.3     1  UNL1        0.1743
     42 O          63.8108   76.4543   10.2272 O.3     1  UNL1       -0.3471
@<TRIPOS>BOND
     1    41    42    1
     2    42    40    1
     3    40    39    1
     4    39    38    1
     5    38    31    1
     6    31    32   ar
     7    32    33   ar
     8    33    34   ar
     9    34    25    1
    10    25    26    1
    11    26    27    1
    12    27    28    1
    13    28    24    1
    14    24    23    1
    15    23     1    1
    16     1     2   ar
    17     2     3    2
    18     2     4   ar
    19     4     5    1
    20     4     6   ar
    21     6     7   ar
    22     7     8   ar
    23     8     9   ar
    24     9    10    1
    25     9    11   ar
    26    11    12   ar
    27    12    13   ar
    28    13    18    1
    29    18    19   ar
    30    19    20   ar
    31    20    21   ar
    32    21    22   ar
    33    13    14   ar
    34    14    15   ar
    35    28    29    1
    36    29    30    1
    37    34    35   ar
    38    35    36   ar
    39    36    37    1
    40    36    31   ar
    41    30    25    1
    42     7     1   ar
    43    15    11   ar
    44    15     6   ar
    45    22    18   ar
    46    10    16    1
    47    10    17    1
@<TRIPOS>MOLECULE
*****
 42 47 0 0 0
SMALL
GASTEIGER

@<TRIPOS>ATOM
      1 N          59.9027   91.0139    4.8396 N.ar    1  UNL1       -0.2634
      2 C          59.0089   92.1656    4.4865 C.ar    1  UNL1        0.3328
      3 O          57.6142   92.3866    4.9924 O.2     1  UNL1       -0.2462
      4 N          59.7546   93.0573    3.5386 N.ar    1  UNL1       -0.2739
      5 C          59.2366   94.3267    2.9302 C.3     1  UNL1        0.1353
      6 C          61.1094   92.4568    3.3059 C.ar    1  UNL1        0.1345
      7 C          61.2009   91.1938    4.1100 C.ar    1  UNL1        0.1692
      8 N          62.4544   90.3709    4.0739 N.ar    1  UNL1       -0.1948
      9 C          63.6165   90.8109    3.2336 C.ar    1  UNL1        0.2176
     10 N          64.8701   89.9879    3.1976 N.pl3   1  UNL1       -0.3273
     11 N          63.5250   92.0738    2.4295 N.ar    1  UNL1       -0.1794
     12 N          64.5003   92.7546    1.5155 N.ar    1  UNL1       -0.1398
     13 C          63.8494   93.9983    0.9867 C.ar    1  UNL1        0.2076
     14 N          62.4719   94.0862    1.5739 N.ar    1  UNL1       -0.2026
     15 C          62.2714   92.8968    2.4656 C.ar    1  UNL1        0.1871
     16 H          64.9301   89.1590    3.7254 H       1  UNL1        0.1452
     17 H          65.6329   90.2767    2.6461 H       1  UNL1        0.1452
     18 C          64.4675   94.9815    0.0373 C.ar    1  UNL1        0.1483
     19 N          65.5980   95.9168    0.3490 N.ar    1  UNL1       -0.2336
     20 C          65.8928   96.7154   -0.8860 C.ar    1  UNL1        0.1066
     21 C          64.9445   96.2736   -1.9611 C.ar    1  UNL1        0.0576
     22 S          64.0636   95.2019   -1.3903 S.2     1  UNL1       -0.0628
     23 C          59.5587   89.8810    5.7608 C.3     1  UNL1        0.1293
     24 C          59.7035   90.0502    7.2442 C.3     1  UNL1        0.0972
     25 N          61.6538   86.8207    9.6971 N.pl3   1  UNL1       -0.3046
     26 C          60.7535   86.4544    8.5546 C.3     1  UNL1        0.1081
     27 C          60.1034   87.5307    7.7370 C.3     1  UNL1        0.0939
     28 N          60.3536   88.9737    8.0619 N.3     1  UNL1       -0.2681
     29 C          61.2538   89.3401    9.2043 C.3     1  UNL1        0.0939
     30 C          61.9039   88.2636   10.0220 C.3     1  UNL1        0.1081
     31 C          63.6041   83.5912   12.1501 C.ar    1  UNL1        0.1660
     32 C          62.8270   84.6811   12.8270 C.ar    1  UNL1        0.0405
     33 C          62.1769   85.7576   12.0093 C.ar    1  UNL1        0.0178
     34 C          62.3039   85.7442   10.5148 C.ar    1  UNL1        0.0504
     35 C          63.0810   84.6543    9.8379 C.ar    1  UNL1        0.0473
     36 C          63.7311   83.5778   10.6555 C.ar    1  UNL1        0.1750
     37 F          64.5082   82.4879    9.9787 F       1  UNL1       -0.2009
     38 O          64.2542   82.5147   12.9677 O.3     1  UNL1       -0.4705
     39 C          63.5766   81.1869   13.1340 C.3     1  UNL1        0.2374
     40 C          62.0880   81.0805   12.9835 C.3     1  UNL1        0.1894
     41 C          59.8599   80.5008   14.1875 C.3     1  UNL1        0.1743
     42 O          61.2038   81.1670   14.1921 O.3     1  UNL1       -0.3471
@<TRIPOS>BOND
     1    41    42    1
     2    42    40    1
     3    40    39    1
     4    39    38    1
     5    38    31    1
     6    31    32   ar
     7    32    33   ar
     8    33    34   ar
     9    34    25    1
    10    25    26    1
    11    26    27    1
    12    27    28    1
    13    28    24    1
    14    24    23    1
    15    23     1    1
    16     1     2   ar
    17     2     3    2
    18     2     4   ar
    19     4     5    1
    20     4     6   ar
    21     6     7   ar
    22     7     8   ar
    23     8     9   ar
    24     9    10    1
    25     9    11   ar
    26    11    12   ar
    27    12    13   ar
    28    13    18    1
    29    18    19   ar
    30    19    20   ar
    31    20    21   ar
    32    21    22   ar
    33    13    14   ar
    34    14    15   ar
    35    28    29    1
    36    29    30    1
    37    34    35   ar
    38    35    36   ar
    39    36    37    1
    40    36    31   ar
    41    30    25    1
    42     7     1   ar
    43    15    11   ar
    44    15     6   ar
    45    22    18   ar
    46    10    16    1
    47    10    17    1
@<TRIPOS>MOLECULE
*****
 42 47 0 0 0
SMALL
GASTEIGER

@<TRIPOS>ATOM
      1 N          63.0420   89.8856   15.3146 N.ar    1  UNL1       -0.2634
      2 C          62.3297   89.5882   14.0285 C.ar    1  UNL1        0.3328
      3 O          61.1909   88.6278   13.8531 O.2     1  UNL1       -0.2462
      4 N          62.9561   90.4198   12.9487 N.ar    1  UNL1       -0.2739
      5 C          62.5536   90.4370   11.5038 C.3     1  UNL1        0.1353
      6 C          64.0555   91.2312   13.5674 C.ar    1  UNL1        0.1345
      7 C          64.1087   90.9011   15.0297 C.ar    1  UNL1        0.1692
      8 N          65.1214   91.5677   15.9127 N.ar    1  UNL1       -0.1948
      9 C          66.0811   92.5646   15.3335 C.ar    1  UNL1        0.2176
     10 N          67.0939   93.2313   16.2167 N.pl3   1  UNL1       -0.3273
     11 N          66.0279   92.8947   13.8713 N.ar    1  UNL1       -0.1794
     12 N          66.8387   93.8293   13.0233 N.ar    1  UNL1       -0.1398
     13 C          66.3269   93.7403   11.6161 C.ar    1  UNL1        0.2076
     14 N          65.1999   92.7506   11.5944 N.ar    1  UNL1       -0.2026
     15 C          65.0151   92.2280   12.9882 C.ar    1  UNL1        0.1871
     16 H          67.1287   93.0145   17.1764 H       1  UNL1        0.1452
     17 H          67.7237   93.8855   15.8366 H       1  UNL1        0.1452
     18 C          66.8503   94.5064   10.4375 C.ar    1  UNL1        0.1483
     19 N          67.6988   93.9519    9.3318 N.ar    1  UNL1       -0.2336
     20 C          67.9899   95.0643    8.3685 C.ar    1  UNL1        0.1066
     21 C          67.3214   96.3063    8.8789 C.ar    1  UNL1        0.0576
     22 S          66.6170   95.9615   10.1576 S.2     1  UNL1       -0.0628
     23 C          62.7406   89.2748   16.6511 C.3     1  UNL1        0.1293
     24 C          63.3174   87.9379   17.0120 C.3     1  UNL1        0.0972
     25 N          63.3676   84.6159   13.9770 N.pl3   1  UNL1       -0.3046
     26 C          64.3020   85.7801   13.8302 C.3     1  UNL1        0.1081
     27 C          64.2853   86.8874   14.8417 C.3     1  UNL1        0.0939
     28 N          63.3341   86.8305   16.0003 N.3     1  UNL1       -0.2681
     29 C          62.3998   85.6664   16.1472 C.3     1  UNL1        0.0939
     30 C          62.4165   84.5590   15.1355 C.3     1  UNL1        0.1081
     31 C          63.4178   81.2937   10.9420 C.ar    1  UNL1        0.1660
     32 C          62.7693   81.0798   12.2775 C.ar    1  UNL1        0.0405
     33 C          62.7525   82.1872   13.2891 C.ar    1  UNL1        0.0178
     34 C          63.3844   83.5085   12.9653 C.ar    1  UNL1        0.0504
     35 C          64.0329   83.7225   11.6298 C.ar    1  UNL1        0.0473
     36 C          64.0496   82.6151   10.6181 C.ar    1  UNL1        0.1750
     37 F          64.6982   82.8290    9.2826 F       1  UNL1       -0.2009
     38 O          63.4346   80.1864    9.9303 O.3     1  UNL1       -0.4705
     39 C          62.4267   79.0787   10.0141 C.3     1  UNL1        0.2374
     40 C          62.6942   77.8855   10.8829 C.3     1  UNL1        0.1894
     41 C          64.3840   76.5788    9.4038 C.3     1  UNL1        0.1743
     42 O          63.1576   76.5984   10.2673 O.3     1  UNL1       -0.3471
@<TRIPOS>BOND
     1    41    42    1
     2    42    40    1
     3    40    39    1
     4    39    38    1
     5    38    31    1
     6    31    32   ar
     7    32    33   ar
     8    33    34   ar
     9    34    25    1
    10    25    26    1
    11    26    27    1
    12    27    28    1
    13    28    24    1
    14    24    23    1
    15    23     1    1
    16     1     2   ar
    17     2     3    2
    18     2     4   ar
    19     4     5    1
    20     4     6   ar
    21     6     7   ar
    22     7     8   ar
    23     8     9   ar
    24     9    10    1
    25     9    11   ar
    26    11    12   ar
    27    12    13   ar
    28    13    18    1
    29    18    19   ar
    30    19    20   ar
    31    20    21   ar
    32    21    22   ar
    33    13    14   ar
    34    14    15   ar
    35    28    29    1
    36    29    30    1
    37    34    35   ar
    38    35    36   ar
    39    36    37    1
    40    36    31   ar
    41    30    25    1
    42     7     1   ar
    43    15    11   ar
    44    15     6   ar
    45    22    18   ar
    46    10    16    1
    47    10    17    1
@<TRIPOS>MOLECULE
*****
 42 47 0 0 0
SMALL
GASTEIGER

@<TRIPOS>ATOM
      1 N          59.8295   89.2611    7.8329 N.ar    1  UNL1       -0.2634
      2 C          59.6162   87.8762    7.2975 C.ar    1  UNL1        0.3328
      3 O          58.8562   87.5188    6.0547 O.2     1  UNL1       -0.2462
      4 N          60.2963   86.9116    8.2232 N.ar    1  UNL1       -0.2739
      5 C          60.3359   85.4201    8.0685 C.3     1  UNL1        0.1353
      6 C          60.9300   87.7003    9.3306 C.ar    1  UNL1        0.1345
      7 C          60.6415   89.1524    9.0894 C.ar    1  UNL1        0.1692
      8 N          61.1554   90.1880   10.0451 N.ar    1  UNL1       -0.1948
      9 C          61.9578   89.7715   11.2421 C.ar    1  UNL1        0.2176
     10 N          62.4718   90.8072   12.1978 N.pl3   1  UNL1       -0.3273
     11 N          62.2464   88.3195   11.4833 N.ar    1  UNL1       -0.1794
     12 N          63.0042   87.6135   12.5683 N.ar    1  UNL1       -0.1398
     13 C          62.9587   86.1416   12.2831 C.ar    1  UNL1        0.2076
     14 N          62.1727   85.9378   11.0219 N.ar    1  UNL1       -0.2026
     15 C          61.7324   87.2838   10.5276 C.ar    1  UNL1        0.1871
     16 H          62.2824   91.7603   12.0394 H       1  UNL1        0.1452
     17 H          62.9984   90.5339   12.9833 H       1  UNL1        0.1452
     18 C          63.5885   85.0627   13.1134 C.ar    1  UNL1        0.1483
     19 N          63.9486   85.1651   14.5660 N.ar    1  UNL1       -0.2336
     20 C          64.5515   83.8578   14.9873 C.ar    1  UNL1        0.1066
     21 C          64.5641   82.9475   13.7951 C.ar    1  UNL1        0.0576
     22 S          63.9689   83.6922   12.6370 S.2     1  UNL1       -0.0628
     23 C          59.3202   90.5317    7.2194 C.3     1  UNL1        0.1293
     24 C          58.9222   90.5594    5.7733 C.3     1  UNL1        0.0972
     25 N          61.5561   92.6074    2.7537 N.pl3   1  UNL1       -0.3046
     26 C          62.1286   91.5566    3.6581 C.3     1  UNL1        0.1081
     27 C          61.2508   90.8739    4.6646 C.3     1  UNL1        0.0939
     28 N          59.8002   91.2421    4.7668 N.3     1  UNL1       -0.2681
     29 C          59.2276   92.2928    3.8624 C.3     1  UNL1        0.0939
     30 C          60.1056   92.9755    2.8559 C.3     1  UNL1        0.1081
     31 C          64.1900   94.6554   -0.2660 C.ar    1  UNL1        0.1660
     32 C          62.7392   95.0227   -0.1647 C.ar    1  UNL1        0.0405
     33 C          61.8612   94.3400    0.8419 C.ar    1  UNL1        0.0178
     34 C          62.4340   93.2901    1.7472 C.ar    1  UNL1        0.0504
     35 C          63.8848   92.9228    1.6459 C.ar    1  UNL1        0.0473
     36 C          64.7628   93.6055    0.6393 C.ar    1  UNL1        0.1750
     37 F          66.2136   93.2383    0.5380 F       1  UNL1       -0.2009
     38 O          65.0680   95.3381   -1.2725 O.3     1  UNL1       -0.4705
     39 C          64.4629   95.9601   -2.4960 C.3     1  UNL1        0.2374
     40 C          64.5861   95.2750   -3.8247 C.3     1  UNL1        0.1894
     41 C          63.3478   93.0142   -3.4997 C.3     1  UNL1        0.1743
     42 O          64.5759   93.7768   -3.8998 O.3     1  UNL1       -0.3471
@<TRIPOS>BOND
     1    41    42    1
     2    42    40    1
     3    40    39    1
     4    39    38    1
     5    38    31    1
     6    31    32   ar
     7    32    33   ar
     8    33    34   ar
     9    34    25    1
    10    25    26    1
    11    26    27    1
    12    27    28    1
    13    28    24    1
    14    24    23    1
    15    23     1    1
    16     1     2   ar
    17     2     3    2
    18     2     4   ar
    19     4     5    1
    20     4     6   ar
    21     6     7   ar
    22     7     8   ar
    23     8     9   ar
    24     9    10    1
    25     9    11   ar
    26    11    12   ar
    27    12    13   ar
    28    13    18    1
    29    18    19   ar
    30    19    20   ar
    31    20    21   ar
    32    21    22   ar
    33    13    14   ar
    34    14    15   ar
    35    28    29    1
    36    29    30    1
    37    34    35   ar
    38    35    36   ar
    39    36    37    1
    40    36    31   ar
    41    30    25    1
    42     7     1   ar
    43    15    11   ar
    44    15     6   ar
    45    22    18   ar
    46    10    16    1
    47    10    17    1
@<TRIPOS>MOLECULE
*****
 42 47 0 0 0
SMALL
GASTEIGER

@<TRIPOS>ATOM
      1 N          60.3887   93.8035    0.9212 N.ar    1  UNL1       -0.2634
      2 C          59.4607   93.4413   -0.2002 C.ar    1  UNL1        0.3328
      3 O          58.0633   92.9161   -0.0535 O.2     1  UNL1       -0.2462
      4 N          60.1754   93.6964   -1.4941 N.ar    1  UNL1       -0.2739
      5 C          59.6182   93.4711   -2.8684 C.3     1  UNL1        0.1353
      6 C          61.5451   94.2163   -1.1723 C.ar    1  UNL1        0.1345
      7 C          61.6770   94.2826    0.3204 C.ar    1  UNL1        0.1692
      8 N          62.9530   94.7705    0.9397 N.ar    1  UNL1       -0.1948
      9 C          64.0973   95.1922    0.0663 C.ar    1  UNL1        0.2176
     10 N          65.3734   95.6801    0.6857 N.pl3   1  UNL1       -0.3273
     11 N          63.9655   95.1259   -1.4264 N.ar    1  UNL1       -0.1794
     12 N          64.9158   95.4719   -2.5343 N.ar    1  UNL1       -0.1398
     13 C          64.2269   95.1978   -3.8382 C.ar    1  UNL1        0.2076
     14 N          62.8510   94.6824   -3.5363 N.ar    1  UNL1       -0.2026
     15 C          62.6894   94.6380   -2.0457 C.ar    1  UNL1        0.1871
     16 H          65.4599   95.7236    1.6654 H       1  UNL1        0.1452
     17 H          66.1244   95.9569    0.1125 H       1  UNL1        0.1452
     18 C          64.8115   95.4030   -5.2043 C.ar    1  UNL1        0.1483
     19 N          64.7009   94.4556   -6.3620 N.ar    1  UNL1       -0.2336
     20 C          65.4302   95.0587   -7.5258 C.ar    1  UNL1        0.1066
     21 C          65.9916   96.3788   -7.0874 C.ar    1  UNL1        0.0576
     22 S          65.6092   96.5916   -5.6526 S.2     1  UNL1       -0.0628
     23 C          60.0822   93.7042    2.3862 C.3     1  UNL1        0.1293
     24 C          58.9904   92.7933    2.8640 C.3     1  UNL1        0.0972
     25 N          59.7082   90.0680    6.3721 N.pl3   1  UNL1       -0.3046
     26 C          58.3137   90.5066    6.0361 C.3     1  UNL1        0.1081
     27 C          58.0743   91.4150    4.8668 C.3     1  UNL1        0.0939
     28 N          59.2297   91.8848    4.0334 N.3     1  UNL1       -0.2681
     29 C          60.6242   91.4463    4.3693 C.3     1  UNL1        0.0939
     30 C          60.8635   90.5378    5.5387 C.3     1  UNL1        0.1081
     31 C          60.4261   87.3426    9.8803 C.ar    1  UNL1        0.1660
     32 C          59.8570   86.7915    8.6066 C.ar    1  UNL1        0.0405
     33 C          59.6177   87.6999    7.4372 C.ar    1  UNL1        0.0178
     34 C          59.9475   89.1595    7.5415 C.ar    1  UNL1        0.0504
     35 C          60.5166   89.7106    8.8152 C.ar    1  UNL1        0.0473
     36 C          60.7559   88.8022    9.9846 C.ar    1  UNL1        0.1750
     37 F          61.3250   89.3533   11.2583 F       1  UNL1       -0.2009
     38 O          60.6654   86.4341   11.0497 O.3     1  UNL1       -0.4705
     39 C          62.0663   86.0647   11.4380 C.3     1  UNL1        0.2374
     40 C          62.3082   84.9079   12.3618 C.3     1  UNL1        0.1894
     41 C          62.7383   84.2142   14.8284 C.3     1  UNL1        0.1743
     42 O          63.0107   85.1263   13.6691 O.3     1  UNL1       -0.3471
@<TRIPOS>BOND
     1    41    42    1
     2    42    40    1
     3    40    39    1
     4    39    38    1
     5    38    31    1
     6    31    32   ar
     7    32    33   ar
     8    33    34   ar
     9    34    25    1
    10    25    26    1
    11    26    27    1
    12    27    28    1
    13    28    24    1
    14    24    23    1
    15    23     1    1
    16     1     2   ar
    17     2     3    2
    18     2     4   ar
    19     4     5    1
    20     4     6   ar
    21     6     7   ar
    22     7     8   ar
    23     8     9   ar
    24     9    10    1
    25     9    11   ar
    26    11    12   ar
    27    12    13   ar
    28    13    18    1
    29    18    19   ar
    30    19    20   ar
    31    20    21   ar
    32    21    22   ar
    33    13    14   ar
    34    14    15   ar
    35    28    29    1
    36    29    30    1
    37    34    35   ar
    38    35    36   ar
    39    36    37    1
    40    36    31   ar
    41    30    25    1
    42     7     1   ar
    43    15    11   ar
    44    15     6   ar
    45    22    18   ar
    46    10    16    1
    47    10    17    1
@<TRIPOS>MOLECULE
*****
 42 47 0 0 0
SMALL
GASTEIGER

@<TRIPOS>ATOM
      1 N          60.9889   93.0541    0.3980 N.ar    1  UNL1       -0.2634
      2 C          62.3430   93.1183    1.0400 C.ar    1  UNL1        0.3328
      3 O          62.6608   92.7709    2.4642 O.2     1  UNL1       -0.2462
      4 N          63.3235   93.5909    0.0079 N.ar    1  UNL1       -0.2739
      5 C          64.7939   93.7991    0.2188 C.3     1  UNL1        0.1353
      6 C          62.5753   93.8188   -1.2721 C.ar    1  UNL1        0.1345
      7 C          61.1325   93.4870   -1.0311 C.ar    1  UNL1        0.1692
      8 N          60.1359   93.6220   -2.1439 N.ar    1  UNL1       -0.1948
      9 C          60.5821   94.0887   -3.4979 C.ar    1  UNL1        0.2176
     10 N          59.5853   94.2237   -4.6107 N.pl3   1  UNL1       -0.3273
     11 N          62.0249   94.4205   -3.7389 N.ar    1  UNL1       -0.1794
     12 N          62.7542   94.9007   -4.9585 N.ar    1  UNL1       -0.1398
     13 C          64.2015   95.0625   -4.5995 C.ar    1  UNL1        0.2076
     14 N          64.3668   94.6823   -3.1579 N.ar    1  UNL1       -0.2026
     15 C          63.0215   94.2855   -2.6260 C.ar    1  UNL1        0.1871
     16 H          58.6384   94.0059   -4.4525 H       1  UNL1        0.1452
     17 H          59.8781   94.5300   -5.4993 H       1  UNL1        0.1452
     18 C          65.2922   95.5235   -5.5203 C.ar    1  UNL1        0.1483
     19 N          66.0668   96.8022   -5.3987 N.ar    1  UNL1       -0.2336
     20 C          67.0531   96.8558   -6.5276 C.ar    1  UNL1        0.1066
     21 C          66.8880   95.6102   -7.3469 C.ar    1  UNL1        0.0576
     22 S          65.7996   94.7867   -6.7243 S.2     1  UNL1       -0.0628
     23 C          59.7149   92.6312    1.0673 C.3     1  UNL1        0.1293
     24 C          59.3845   93.1386    2.4398 C.3     1  UNL1        0.0972
     25 N          59.7055   90.3934    5.9909 N.pl3   1  UNL1       -0.3046
     26 C          58.3636   90.9039    5.5565 C.3     1  UNL1        0.1081
     27 C          58.2565   91.8189    4.3728 C.3     1  UNL1        0.0939
     28 N          59.4915   92.2235    3.6235 N.3     1  UNL1       -0.2681
     29 C          60.8333   91.7130    4.0579 C.3     1  UNL1        0.0939
     30 C          60.9403   90.7979    5.2416 C.3     1  UNL1        0.1081
     31 C          60.0265   87.6482    9.5421 C.ar    1  UNL1        0.1660
     32 C          59.4594   87.1397    8.2499 C.ar    1  UNL1        0.0405
     33 C          59.3524   88.0548    7.0662 C.ar    1  UNL1        0.0178
     34 C          59.8125   89.4783    7.1747 C.ar    1  UNL1        0.0504
     35 C          60.3796   89.9868    8.4669 C.ar    1  UNL1        0.0473
     36 C          60.4866   89.0717    9.6506 C.ar    1  UNL1        0.1750
     37 F          61.0537   89.5802   10.9428 F       1  UNL1       -0.2009
     38 O          60.1335   86.7331   10.7259 O.3     1  UNL1       -0.4705
     39 C          61.4800   86.2662   11.1935 C.3     1  UNL1        0.2374
     40 C          62.3286   85.4101   10.3008 C.3     1  UNL1        0.1894
     41 C          62.8808   84.9601    7.8022 C.3     1  UNL1        0.1743
     42 O          62.7436   85.9153    8.9506 O.3     1  UNL1       -0.3471
@<TRIPOS>BOND
     1    41    42    1
     2    42    40    1
     3    40    39    1
     4    39    38    1
     5    38    31    1
     6    31    32   ar
     7    32    33   ar
     8    33    34   ar
     9    34    25    1
    10    25    26    1
    11    26    27    1
    12    27    28    1
    13    28    24    1
    14    24    23    1
    15    23     1    1
    16     1     2   ar
    17     2     3    2
    18     2     4   ar
    19     4     5    1
    20     4     6   ar
    21     6     7   ar
    22     7     8   ar
    23     8     9   ar
    24     9    10    1
    25     9    11   ar
    26    11    12   ar
    27    12    13   ar
    28    13    18    1
    29    18    19   ar
    30    19    20   ar
    31    20    21   ar
    32    21    22   ar
    33    13    14   ar
    34    14    15   ar
    35    28    29    1
    36    29    30    1
    37    34    35   ar
    38    35    36   ar
    39    36    37    1
    40    36    31   ar
    41    30    25    1
    42     7     1   ar
    43    15    11   ar
    44    15     6   ar
    45    22    18   ar
    46    10    16    1
    47    10    17    1
@<TRIPOS>MOLECULE
*****
 42 47 0 0 0
SMALL
GASTEIGER

@<TRIPOS>ATOM
      1 N          62.1891   86.6719   11.6712 N.ar    1  UNL1       -0.2634
      2 C          62.7550   85.9976   12.8857 C.ar    1  UNL1        0.3328
      3 O          62.4849   84.5866   13.3170 O.2     1  UNL1       -0.2462
      4 N          63.6383   86.9821   13.5932 N.ar    1  UNL1       -0.2739
      5 C          64.4067   86.7283   14.8562 C.3     1  UNL1        0.1353
      6 C          63.6184   88.2648   12.8159 C.ar    1  UNL1        0.1345
      7 C          62.7227   88.0732   11.6281 C.ar    1  UNL1        0.1692
      8 N          62.5087   89.1993   10.6607 N.ar    1  UNL1       -0.1948
      9 C          63.1905   90.5172   10.8810 C.ar    1  UNL1        0.2176
     10 N          62.9764   91.6434    9.9135 N.pl3   1  UNL1       -0.3273
     11 N          64.0862   90.7088   12.0689 N.ar    1  UNL1       -0.1794
     12 N          64.8862   91.8857   12.5432 N.ar    1  UNL1       -0.1398
     13 C          65.5946   91.4868   13.8037 C.ar    1  UNL1        0.2076
     14 N          65.2324   90.0635   14.1086 N.ar    1  UNL1       -0.2026
     15 C          64.3001   89.5826   13.0363 C.ar    1  UNL1        0.1871
     16 H          62.3886   91.5175    9.1339 H       1  UNL1        0.1452
     17 H          63.4239   92.5083   10.0582 H       1  UNL1        0.1452
     18 C          66.5053   92.3583   14.6168 C.ar    1  UNL1        0.1483
     19 N          67.1881   91.9700   15.8947 N.ar    1  UNL1       -0.2336
     20 C          67.9979   93.1428   16.3624 C.ar    1  UNL1        0.1066
     21 C          67.8156   94.2560   15.3737 C.ar    1  UNL1        0.0576
     22 S          66.8931   93.7711   14.2948 S.2     1  UNL1       -0.0628
     23 C          61.2538   86.0536   10.6748 C.3     1  UNL1        0.1293
     24 C          59.9463   86.7184   10.3604 C.3     1  UNL1        0.0972
     25 N          59.6475   89.5658    6.8887 N.pl3   1  UNL1       -0.3046
     26 C          59.3894   88.1026    6.6830 C.3     1  UNL1        0.1081
     27 C          59.4890   87.1534    7.8401 C.3     1  UNL1        0.0939
     28 N          59.8467   87.6676    9.2032 N.3     1  UNL1       -0.2681
     29 C          60.1048   89.1307    9.4090 C.3     1  UNL1        0.0939
     30 C          60.0052   90.0799    8.2517 C.3     1  UNL1        0.1081
     31 C          59.3486   92.4132    3.4169 C.ar    1  UNL1        0.1660
     32 C          58.1077   91.9762    4.1374 C.ar    1  UNL1        0.0405
     33 C          58.2074   91.0270    5.2947 C.ar    1  UNL1        0.0178
     34 C          59.5479   90.5149    5.7315 C.ar    1  UNL1        0.0504
     35 C          60.7888   90.9520    5.0110 C.ar    1  UNL1        0.0473
     36 C          60.6892   91.9011    3.8537 C.ar    1  UNL1        0.1750
     37 F          61.9300   92.3382    3.1332 F       1  UNL1       -0.2009
     38 O          59.2490   93.3624    2.2597 O.3     1  UNL1       -0.4705
     39 C          59.6207   92.9049    0.8804 C.3     1  UNL1        0.2374
     40 C          58.7652   93.2847   -0.2917 C.3     1  UNL1        0.1894
     41 C          56.4370   93.3129   -1.4444 C.3     1  UNL1        0.1743
     42 O          57.3578   92.7750   -0.3895 O.3     1  UNL1       -0.3471
@<TRIPOS>BOND
     1    41    42    1
     2    42    40    1
     3    40    39    1
     4    39    38    1
     5    38    31    1
     6    31    32   ar
     7    32    33   ar
     8    33    34   ar
     9    34    25    1
    10    25    26    1
    11    26    27    1
    12    27    28    1
    13    28    24    1
    14    24    23    1
    15    23     1    1
    16     1     2   ar
    17     2     3    2
    18     2     4   ar
    19     4     5    1
    20     4     6   ar
    21     6     7   ar
    22     7     8   ar
    23     8     9   ar
    24     9    10    1
    25     9    11   ar
    26    11    12   ar
    27    12    13   ar
    28    13    18    1
    29    18    19   ar
    30    19    20   ar
    31    20    21   ar
    32    21    22   ar
    33    13    14   ar
    34    14    15   ar
    35    28    29    1
    36    29    30    1
    37    34    35   ar
    38    35    36   ar
    39    36    37    1
    40    36    31   ar
    41    30    25    1
    42     7     1   ar
    43    15    11   ar
    44    15     6   ar
    45    22    18   ar
    46    10    16    1
    47    10    17    1
