@<TRIPOS>MOLECULE
*****
 27 29 0 0 0
SMALL
GASTEIGER

@<TRIPOS>ATOM
      1 C          62.1973   90.3309   10.9056 C.ar    1  UNL1        0.0527
      2 C          60.7086   90.4725   10.7879 C.ar    1  UNL1        0.1091
      3 N          60.1646   89.1938   10.2232 N.ar    1  UNL1       -0.2035
      4 C          61.3170   88.2619    9.9918 C.ar    1  UNL1        0.2628
      5 S          62.5733   88.9647   10.4135 S.2     1  UNL1       -0.0283
      6 C          64.3030   91.8182   10.5830 C.2     1  UNL1       -0.0064
      7 C          63.1438   91.3726   11.4242 C.2     1  UNL1        0.0052
      8 C          65.2495   92.8600   11.1016 C.3     1  UNL1        0.0939
      9 C          65.6927   92.8240   12.5342 C.3     1  UNL1        0.0262
     10 C          67.6792   94.9932    8.8005 C.3     1  UNL1        0.0946
     11 C          67.1759   93.9156    9.7144 C.2     1  UNL1        0.2232
     12 O          68.0959   92.8158   10.1551 O.2     1  UNL1       -0.2751
     13 N          65.7527   93.9377   10.1876 N.am    1  UNL1       -0.3022
     14 H          65.1489   94.6594    9.8984 H       1  UNL1        0.1497
     15 O          61.2287   86.8715    9.4362 O.3     1  UNL1       -0.4305
     16 C          62.0341   85.7654   10.0512 C.ar    1  UNL1        0.1583
     17 C          61.9766   85.5295   11.5314 C.ar    1  UNL1        0.0416
     18 C          62.7819   84.4235   12.1464 C.ar    1  UNL1        0.0401
     19 C          63.6447   83.5535   11.2812 C.ar    1  UNL1        0.1396
     20 C          63.7022   83.7895    9.8010 C.ar    1  UNL1        0.0514
     21 C          62.8969   84.8954    9.1860 C.ar    1  UNL1        0.0952
     22 CL         62.9543   85.1314    7.7058 Cl      1  UNL1       -0.0790
     23 O          64.4501   82.4475   11.8962 O.3     1  UNL1       -0.4754
     24 C          64.1227   81.9593   13.2762 C.3     1  UNL1        0.2053
     25 C          62.8826   81.1485   13.5104 C.3     1  UNL1        0.0438
     26 C          61.4997   81.0243   14.0780 C.3     1  UNL1        0.0038
     27 C          62.1177   79.8684   13.3486 C.3     1  UNL1        0.0038
@<TRIPOS>BOND
     1    10    11    1
     2    11    12    2
     3    11    13   am
     4    13     8    1
     5     8     9    1
     6     8     6    1
     7     6     7    2
     8     7     1    1
     9     1     2   ar
    10     2     3   ar
    11     3     4   ar
    12     4    15    1
    13    15    16    1
    14    16    17   ar
    15    17    18   ar
    16    18    19   ar
    17    19    23    1
    18    23    24    1
    19    24    25    1
    20    25    26    1
    21    26    27    1
    22    19    20   ar
    23    20    21   ar
    24    21    22    1
    25     4     5   ar
    26     5     1   ar
    27    21    16   ar
    28    27    25    1
    29    13    14    1
@<TRIPOS>MOLECULE
*****
 27 29 0 0 0
SMALL
GASTEIGER

@<TRIPOS>ATOM
      1 C          63.9786   87.8965   15.4092 C.ar    1  UNL1        0.0527
      2 C          63.2406   88.5199   16.5568 C.ar    1  UNL1        0.1091
      3 N          63.1198   89.9903   16.2863 N.ar    1  UNL1       -0.2035
      4 C          63.7832   90.2758   14.9716 C.ar    1  UNL1        0.2628
      5 S          64.3140   88.9818   14.4296 S.2     1  UNL1       -0.0283
      6 C          63.9650   85.7088   14.0079 C.2     1  UNL1       -0.0064
      7 C          64.3212   86.4432   15.2664 C.2     1  UNL1        0.0052
      8 C          64.3075   84.2554   13.8651 C.3     1  UNL1        0.0939
      9 C          64.2189   83.3438   15.0530 C.3     1  UNL1        0.0262
     10 C          64.1912   82.4285   10.3440 C.3     1  UNL1        0.0946
     11 C          63.7601   82.9702   11.6746 C.2     1  UNL1        0.2232
     12 O          62.3503   82.7683   12.1455 O.2     1  UNL1       -0.2751
     13 N          64.7387   83.7138   12.5345 N.am    1  UNL1       -0.3022
     14 H          65.6640   83.8463   12.2255 H       1  UNL1        0.1497
     15 O          63.8960   91.6194   14.3144 O.3     1  UNL1       -0.4305
     16 C          64.9829   91.8756   13.3129 C.ar    1  UNL1        0.1583
     17 C          64.6466   92.0009   11.8565 C.ar    1  UNL1        0.0416
     18 C          65.7335   92.2571   10.8551 C.ar    1  UNL1        0.0401
     19 C          67.1568   92.3880   11.3101 C.ar    1  UNL1        0.1396
     20 C          67.4932   92.2627   12.7665 C.ar    1  UNL1        0.0514
     21 C          66.4063   92.0066   13.7679 C.ar    1  UNL1        0.0952
     22 CL         66.7426   91.8813   15.2244 Cl      1  UNL1       -0.0790
     23 O          68.2438   92.6442   10.3086 O.3     1  UNL1       -0.4754
     24 C          67.9890   93.5500    9.1405 C.3     1  UNL1        0.2053
     25 C          67.5144   94.9544    9.3699 C.3     1  UNL1        0.0438
     26 C          66.8567   95.9759   10.2495 C.3     1  UNL1        0.0038
     27 C          67.3501   96.3652    8.8876 C.3     1  UNL1        0.0038
@<TRIPOS>BOND
     1    10    11    1
     2    11    12    2
     3    11    13   am
     4    13     8    1
     5     8     9    1
     6     8     6    1
     7     6     7    2
     8     7     1    1
     9     1     2   ar
    10     2     3   ar
    11     3     4   ar
    12     4    15    1
    13    15    16    1
    14    16    17   ar
    15    17    18   ar
    16    18    19   ar
    17    19    23    1
    18    23    24    1
    19    24    25    1
    20    25    26    1
    21    26    27    1
    22    19    20   ar
    23    20    21   ar
    24    21    22    1
    25     4     5   ar
    26     5     1   ar
    27    21    16   ar
    28    27    25    1
    29    13    14    1
@<TRIPOS>MOLECULE
*****
 27 29 0 0 0
SMALL
GASTEIGER

@<TRIPOS>ATOM
      1 C          61.8766   86.8451    9.9908 C.ar    1  UNL1        0.0527
      2 C          60.8219   87.3896    9.0736 C.ar    1  UNL1        0.1091
      3 N          60.6192   88.8377    9.4082 N.ar    1  UNL1       -0.2035
      4 C          61.5487   89.1882   10.5321 C.ar    1  UNL1        0.2628
      5 S          62.3258   87.9567   10.8922 S.2     1  UNL1       -0.0283
      6 C          62.6289   84.7369   11.3097 C.2     1  UNL1       -0.0064
      7 C          62.3917   85.4364   10.0041 C.2     1  UNL1        0.0052
      8 C          63.1440   83.3282   11.3231 C.3     1  UNL1        0.0939
      9 C          64.4415   82.9976   10.6469 C.3     1  UNL1        0.0262
     10 C          61.5780   81.0871   14.1996 C.3     1  UNL1        0.0946
     11 C          62.3604   82.1651   13.5101 C.2     1  UNL1        0.2232
     12 O          63.1419   83.1583   14.3182 O.2     1  UNL1       -0.2751
     13 N          62.3615   82.2500   12.0125 N.am    1  UNL1       -0.3022
     14 H          61.8486   81.5982   11.4821 H       1  UNL1        0.1497
     15 O          61.6783   90.5339   11.1819 O.3     1  UNL1       -0.4305
     16 C          63.0359   91.0798   11.5119 C.ar    1  UNL1        0.1583
     17 C          63.8133   91.8344   10.4745 C.ar    1  UNL1        0.0416
     18 C          65.1709   92.3803   10.8046 C.ar    1  UNL1        0.0401
     19 C          65.7511   92.1715   12.1720 C.ar    1  UNL1        0.1396
     20 C          64.9737   91.4169   13.2094 C.ar    1  UNL1        0.0514
     21 C          63.6161   90.8711   12.8793 C.ar    1  UNL1        0.0952
     22 CL         62.8387   90.1164   13.9168 Cl      1  UNL1       -0.0790
     23 O          67.1087   92.7175   12.5020 O.3     1  UNL1       -0.4754
     24 C          68.0164   91.9619   13.4267 C.3     1  UNL1        0.2053
     25 C          68.0684   92.3178   14.8831 C.3     1  UNL1        0.0438
     26 C          68.8629   92.6133   16.1205 C.3     1  UNL1        0.0038
     27 C          67.3639   92.6386   16.1679 C.3     1  UNL1        0.0038
@<TRIPOS>BOND
     1    10    11    1
     2    11    12    2
     3    11    13   am
     4    13     8    1
     5     8     9    1
     6     8     6    1
     7     6     7    2
     8     7     1    1
     9     1     2   ar
    10     2     3   ar
    11     3     4   ar
    12     4    15    1
    13    15    16    1
    14    16    17   ar
    15    17    18   ar
    16    18    19   ar
    17    19    23    1
    18    23    24    1
    19    24    25    1
    20    25    26    1
    21    26    27    1
    22    19    20   ar
    23    20    21   ar
    24    21    22    1
    25     4     5   ar
    26     5     1   ar
    27    21    16   ar
    28    27    25    1
    29    13    14    1
@<TRIPOS>MOLECULE
*****
 27 29 0 0 0
SMALL
GASTEIGER

@<TRIPOS>ATOM
      1 C          63.9855   86.3221   14.5960 C.ar    1  UNL1        0.0527
      2 C          63.6396   86.3840   16.0543 C.ar    1  UNL1        0.1091
      3 N          63.5002   87.8276   16.4369 N.ar    1  UNL1       -0.2035
      4 C          63.7599   88.6581   15.2151 C.ar    1  UNL1        0.2628
      5 S          64.0599   87.7276   14.0774 S.2     1  UNL1       -0.0283
      6 C          63.2044   84.6366   12.7797 C.2     1  UNL1       -0.0064
      7 C          64.2165   85.0740   13.7968 C.2     1  UNL1        0.0052
      8 C          63.4354   83.3885   11.9805 C.3     1  UNL1        0.0939
      9 C          64.5588   83.3305   10.9882 C.3     1  UNL1        0.0262
     10 C          61.8539   80.1018   13.5446 C.3     1  UNL1        0.0946
     11 C          62.7462   81.2919   13.3514 C.2     1  UNL1        0.2232
     12 O          63.8417   81.5756   14.3359 O.2     1  UNL1       -0.2751
     13 N          62.5430   82.1984   12.1737 N.am    1  UNL1       -0.3022
     14 H          61.8240   82.0122   11.5274 H       1  UNL1        0.1497
     15 O          63.7258   90.1559   15.1435 O.3     1  UNL1       -0.4305
     16 C          64.6635   90.8847   14.2271 C.ar    1  UNL1        0.1583
     17 C          66.0343   91.2638   14.7037 C.ar    1  UNL1        0.0416
     18 C          66.9720   91.9925   13.7873 C.ar    1  UNL1        0.0401
     19 C          66.5388   92.3420   12.3944 C.ar    1  UNL1        0.1396
     20 C          65.1680   91.9628   11.9178 C.ar    1  UNL1        0.0514
     21 C          64.2304   91.2342   12.8342 C.ar    1  UNL1        0.0952
     22 CL         62.8595   90.8550   12.3577 Cl      1  UNL1       -0.0790
     23 O          67.4766   93.0707   11.4780 O.3     1  UNL1       -0.4754
     24 C          67.1878   93.1370   10.0075 C.3     1  UNL1        0.2053
     25 C          67.2199   94.4570    9.2957 C.3     1  UNL1        0.0438
     26 C          67.0375   95.2623    8.0434 C.3     1  UNL1        0.0038
     27 C          67.4581   95.9378    9.3149 C.3     1  UNL1        0.0038
@<TRIPOS>BOND
     1    10    11    1
     2    11    12    2
     3    11    13   am
     4    13     8    1
     5     8     9    1
     6     8     6    1
     7     6     7    2
     8     7     1    1
     9     1     2   ar
    10     2     3   ar
    11     3     4   ar
    12     4    15    1
    13    15    16    1
    14    16    17   ar
    15    17    18   ar
    16    18    19   ar
    17    19    23    1
    18    23    24    1
    19    24    25    1
    20    25    26    1
    21    26    27    1
    22    19    20   ar
    23    20    21   ar
    24    21    22    1
    25     4     5   ar
    26     5     1   ar
    27    21    16   ar
    28    27    25    1
    29    13    14    1
@<TRIPOS>MOLECULE
*****
 27 29 0 0 0
SMALL
GASTEIGER

@<TRIPOS>ATOM
      1 C          62.0374   86.2961   11.0905 C.ar    1  UNL1        0.0527
      2 C          61.4325   86.6916    9.7760 C.ar    1  UNL1        0.1091
      3 N          61.2347   88.1785    9.7855 N.ar    1  UNL1       -0.2035
      4 C          61.7173   88.7019   11.1057 C.ar    1  UNL1        0.2628
      5 S          62.2134   87.5386   11.9122 S.2     1  UNL1       -0.0283
      6 C          62.8695   84.6390   12.9103 C.2     1  UNL1       -0.0064
      7 C          62.4023   84.9028   11.5095 C.2     1  UNL1        0.0052
      8 C          63.2344   83.2457   13.3294 C.3     1  UNL1        0.0939
      9 C          64.0079   83.0215   14.5948 C.3     1  UNL1        0.0262
     10 C          63.1902   80.5739   10.3953 C.3     1  UNL1        0.0946
     11 C          63.5988   81.7429   11.2417 C.2     1  UNL1        0.2232
     12 O          64.7806   82.5780   10.8468 O.2     1  UNL1       -0.2751
     13 N          62.8257   82.0767   12.4830 N.am    1  UNL1       -0.3022
     14 H          62.0500   81.5286   12.7421 H       1  UNL1        0.1497
     15 O          61.7057   90.1368   11.5427 O.3     1  UNL1       -0.4305
     16 C          62.9874   90.9143   11.5979 C.ar    1  UNL1        0.1583
     17 C          63.5067   91.5929   10.3651 C.ar    1  UNL1        0.0416
     18 C          64.7882   92.3703   10.4205 C.ar    1  UNL1        0.0401
     19 C          65.5505   92.4692   11.7086 C.ar    1  UNL1        0.1396
     20 C          65.0312   91.7907   12.9413 C.ar    1  UNL1        0.0514
     21 C          63.7496   91.0132   12.8860 C.ar    1  UNL1        0.0952
     22 CL         63.2302   90.3346   14.1189 Cl      1  UNL1       -0.0790
     23 O          66.8321   93.2468   11.7638 O.3     1  UNL1       -0.4754
     24 C          67.2530   94.0832   10.5920 C.3     1  UNL1        0.2053
     25 C          66.8377   95.5222   10.5099 C.3     1  UNL1        0.0438
     26 C          66.0588   96.6826   11.0548 C.3     1  UNL1        0.0038
     27 C          66.8972   96.8543    9.8229 C.3     1  UNL1        0.0038
@<TRIPOS>BOND
     1    10    11    1
     2    11    12    2
     3    11    13   am
     4    13     8    1
     5     8     9    1
     6     8     6    1
     7     6     7    2
     8     7     1    1
     9     1     2   ar
    10     2     3   ar
    11     3     4   ar
    12     4    15    1
    13    15    16    1
    14    16    17   ar
    15    17    18   ar
    16    18    19   ar
    17    19    23    1
    18    23    24    1
    19    24    25    1
    20    25    26    1
    21    26    27    1
    22    19    20   ar
    23    20    21   ar
    24    21    22    1
    25     4     5   ar
    26     5     1   ar
    27    21    16   ar
    28    27    25    1
    29    13    14    1
@<TRIPOS>MOLECULE
*****
 27 29 0 0 0
SMALL
GASTEIGER

@<TRIPOS>ATOM
      1 C          61.5558   86.5642   11.0615 C.ar    1  UNL1        0.0527
      2 C          60.7609   87.1558    9.9352 C.ar    1  UNL1        0.1091
      3 N          60.7126   88.6419   10.1326 N.ar    1  UNL1       -0.2035
      4 C          61.4775   88.9689   11.3807 C.ar    1  UNL1        0.2628
      5 S          61.9987   87.6848   11.9548 S.2     1  UNL1       -0.0283
      6 C          63.1601   84.5392   10.7861 C.2     1  UNL1       -0.0064
      7 C          61.8552   85.1078   11.2596 C.2     1  UNL1        0.0052
      8 C          63.4595   83.0828   10.9842 C.3     1  UNL1        0.0939
      9 C          64.7156   82.4914   10.4164 C.3     1  UNL1        0.0262
     10 C          61.6955   81.2020   14.0009 C.3     1  UNL1        0.0946
     11 C          62.6521   82.0669   13.2350 C.2     1  UNL1        0.2232
     12 O          63.7583   82.7807   13.9539 O.2     1  UNL1       -0.2751
     13 N          62.5027   82.2179   11.7501 N.am    1  UNL1       -0.3022
     14 H          61.7768   81.7494   11.2782 H       1  UNL1        0.1497
     15 O          61.6849   90.3394   11.9541 O.3     1  UNL1       -0.4305
     16 C          63.0719   90.8954   12.0856 C.ar    1  UNL1        0.1583
     17 C          63.7807   90.8382   13.4062 C.ar    1  UNL1        0.0416
     18 C          65.1676   91.3942   13.5376 C.ar    1  UNL1        0.0401
     19 C          65.8457   92.0074   12.3484 C.ar    1  UNL1        0.1396
     20 C          65.1368   92.0646   11.0278 C.ar    1  UNL1        0.0514
     21 C          63.7499   91.5086   10.8963 C.ar    1  UNL1        0.0952
     22 CL         63.0409   91.5658    9.5756 Cl      1  UNL1       -0.0790
     23 O          67.2326   92.5635   12.4799 O.3     1  UNL1       -0.4754
     24 C          68.3349   92.0442   11.6051 C.3     1  UNL1        0.2053
     25 C          68.4303   92.4884   10.1755 C.3     1  UNL1        0.0438
     26 C          68.2621   93.5527    9.1320 C.3     1  UNL1        0.0038
     27 C          68.7636   92.1936    8.7430 C.3     1  UNL1        0.0038
@<TRIPOS>BOND
     1    10    11    1
     2    11    12    2
     3    11    13   am
     4    13     8    1
     5     8     9    1
     6     8     6    1
     7     6     7    2
     8     7     1    1
     9     1     2   ar
    10     2     3   ar
    11     3     4   ar
    12     4    15    1
    13    15    16    1
    14    16    17   ar
    15    17    18   ar
    16    18    19   ar
    17    19    23    1
    18    23    24    1
    19    24    25    1
    20    25    26    1
    21    26    27    1
    22    19    20   ar
    23    20    21   ar
    24    21    22    1
    25     4     5   ar
    26     5     1   ar
    27    21    16   ar
    28    27    25    1
    29    13    14    1
@<TRIPOS>MOLECULE
*****
 27 29 0 0 0
SMALL
GASTEIGER

@<TRIPOS>ATOM
      1 C          63.4926   86.6511   13.3674 C.ar    1  UNL1        0.0527
      2 C          64.3763   87.0137   14.5240 C.ar    1  UNL1        0.1091
      3 N          64.4359   88.5100   14.6105 N.ar    1  UNL1       -0.2035
      4 C          63.5891   89.0722   13.5074 C.ar    1  UNL1        0.2628
      5 S          63.0061   87.9233   12.7391 S.2     1  UNL1       -0.0283
      6 C          62.7950   84.2122   13.9288 C.2     1  UNL1       -0.0064
      7 C          63.1548   85.2605   12.9179 C.2     1  UNL1        0.0052
      8 C          62.4572   82.8216   13.4793 C.3     1  UNL1        0.0939
      9 C          62.0118   81.7972   14.4805 C.3     1  UNL1        0.0262
     10 C          64.0212   81.8814    9.9552 C.3     1  UNL1        0.0946
     11 C          63.9135   82.2477   11.4057 C.2     1  UNL1        0.2232
     12 O          65.1544   82.4065   12.2333 O.2     1  UNL1       -0.2751
     13 N          62.5649   82.4553   12.0287 N.am    1  UNL1       -0.3022
     14 H          61.7504   82.3511   11.4856 H       1  UNL1        0.1497
     15 O          63.3646   90.5277   13.2227 O.3     1  UNL1       -0.4305
     16 C          64.4389   91.3361   12.5574 C.ar    1  UNL1        0.1583
     17 C          65.6418   91.7731   13.3397 C.ar    1  UNL1        0.0416
     18 C          66.7159   92.5815   12.6744 C.ar    1  UNL1        0.0401
     19 C          66.5872   92.9529   11.2269 C.ar    1  UNL1        0.1396
     20 C          65.3843   92.5159   10.4446 C.ar    1  UNL1        0.0514
     21 C          64.3102   91.7076   11.1098 C.ar    1  UNL1        0.0952
     22 CL         63.1072   91.2705   10.3275 Cl      1  UNL1       -0.0790
     23 O          67.6615   93.7614   10.5616 O.3     1  UNL1       -0.4754
     24 C          67.6058   94.0107    9.0836 C.3     1  UNL1        0.2053
     25 C          67.2176   95.3639    8.5654 C.3     1  UNL1        0.0438
     26 C          66.3734   96.2173    7.6659 C.3     1  UNL1        0.0038
     27 C          67.3894   96.8540    8.5672 C.3     1  UNL1        0.0038
@<TRIPOS>BOND
     1    10    11    1
     2    11    12    2
     3    11    13   am
     4    13     8    1
     5     8     9    1
     6     8     6    1
     7     6     7    2
     8     7     1    1
     9     1     2   ar
    10     2     3   ar
    11     3     4   ar
    12     4    15    1
    13    15    16    1
    14    16    17   ar
    15    17    18   ar
    16    18    19   ar
    17    19    23    1
    18    23    24    1
    19    24    25    1
    20    25    26    1
    21    26    27    1
    22    19    20   ar
    23    20    21   ar
    24    21    22    1
    25     4     5   ar
    26     5     1   ar
    27    21    16   ar
    28    27    25    1
    29    13    14    1
@<TRIPOS>MOLECULE
*****
 27 29 0 0 0
SMALL
GASTEIGER

@<TRIPOS>ATOM
      1 C          61.0248   86.9502    9.0031 C.ar    1  UNL1        0.0527
      2 C          61.1011   88.3128    9.6256 C.ar    1  UNL1        0.1091
      3 N          60.1726   89.2190    8.8728 N.ar    1  UNL1       -0.2035
      4 C          59.5224   88.4165    7.7851 C.ar    1  UNL1        0.2628
      5 S          60.0491   87.0143    7.8656 S.2     1  UNL1       -0.0283
      6 C          62.0845   85.5205   10.8960 C.2     1  UNL1       -0.0064
      7 C          61.7898   85.7366    9.4412 C.2     1  UNL1        0.0052
      8 C          62.8495   84.3069   11.3341 C.3     1  UNL1        0.0939
      9 C          63.8663   83.6908   10.4195 C.3     1  UNL1        0.0262
     10 C          62.2352   81.6241   14.1932 C.3     1  UNL1        0.0946
     11 C          62.4870   82.2216   12.8406 C.2     1  UNL1        0.2232
     12 O          62.6281   81.3310   11.6418 O.2     1  UNL1       -0.2751
     13 N          62.5977   83.7095   12.6867 N.am    1  UNL1       -0.3022
     14 H          62.5051   84.2940   13.4735 H       1  UNL1        0.1497
     15 O          58.5214   88.9266    6.7913 O.3     1  UNL1       -0.4305
     16 C          58.8727   90.0778    5.8962 C.ar    1  UNL1        0.1583
     17 C          60.3112   90.4023    5.6213 C.ar    1  UNL1        0.0416
     18 C          60.6625   91.5535    4.7262 C.ar    1  UNL1        0.0401
     19 C          59.5754   92.3803    4.1060 C.ar    1  UNL1        0.1396
     20 C          58.1370   92.0559    4.3809 C.ar    1  UNL1        0.0514
     21 C          57.7856   90.9046    5.2760 C.ar    1  UNL1        0.0952
     22 CL         56.3471   90.5801    5.5510 Cl      1  UNL1       -0.0790
     23 O          59.9268   93.5316    3.2109 O.3     1  UNL1       -0.4754
     24 C          60.5911   93.2790    1.8900 C.3     1  UNL1        0.2053
     25 C          59.7594   92.9972    0.6739 C.3     1  UNL1        0.0438
     26 C          59.5121   92.2052   -0.5757 C.3     1  UNL1        0.0038
     27 C          58.5663   93.3011   -0.1829 C.3     1  UNL1        0.0038
@<TRIPOS>BOND
     1    10    11    1
     2    11    12    2
     3    11    13   am
     4    13     8    1
     5     8     9    1
     6     8     6    1
     7     6     7    2
     8     7     1    1
     9     1     2   ar
    10     2     3   ar
    11     3     4   ar
    12     4    15    1
    13    15    16    1
    14    16    17   ar
    15    17    18   ar
    16    18    19   ar
    17    19    23    1
    18    23    24    1
    19    24    25    1
    20    25    26    1
    21    26    27    1
    22    19    20   ar
    23    20    21   ar
    24    21    22    1
    25     4     5   ar
    26     5     1   ar
    27    21    16   ar
    28    27    25    1
    29    13    14    1
@<TRIPOS>MOLECULE
*****
 27 29 0 0 0
SMALL
GASTEIGER

@<TRIPOS>ATOM
      1 C          63.9932   86.5747   13.8912 C.ar    1  UNL1        0.0527
      2 C          64.4680   87.3673   15.0729 C.ar    1  UNL1        0.1091
      3 N          64.1671   88.8135   14.8122 N.ar    1  UNL1       -0.2035
      4 C          63.5064   88.9147   13.4694 C.ar    1  UNL1        0.2628
      5 S          63.3989   87.5311   12.9002 S.2     1  UNL1       -0.0283
      6 C          63.3396   84.1784   14.6532 C.2     1  UNL1       -0.0064
      7 C          64.0949   85.0870   13.7290 C.2     1  UNL1        0.0052
      8 C          63.4413   82.6907   14.4910 C.3     1  UNL1        0.0939
      9 C          64.7067   82.0780   13.9680 C.3     1  UNL1        0.0262
     10 C          60.3075   80.2823   14.1324 C.3     1  UNL1        0.0946
     11 C          61.4712   81.1573   13.7718 C.2     1  UNL1        0.2232
     12 O          61.8285   81.3740   12.3311 O.2     1  UNL1       -0.2751
     13 N          62.2776   81.8157   14.8517 N.am    1  UNL1       -0.3022
     14 H          62.0431   81.6735   15.7972 H       1  UNL1        0.1497
     15 O          63.0357   90.1778   12.8114 O.3     1  UNL1       -0.4305
     16 C          64.0278   91.2284   12.4089 C.ar    1  UNL1        0.1583
     17 C          64.9951   91.7726   13.4180 C.ar    1  UNL1        0.0416
     18 C          65.9871   92.8232   13.0154 C.ar    1  UNL1        0.0401
     19 C          66.0119   93.3296   11.6037 C.ar    1  UNL1        0.1396
     20 C          65.0447   92.7855   10.5946 C.ar    1  UNL1        0.0514
     21 C          64.0526   91.7349   10.9972 C.ar    1  UNL1        0.0952
     22 CL         63.0853   91.1907    9.9880 Cl      1  UNL1       -0.0790
     23 O          67.0040   94.3803   11.2012 O.3     1  UNL1       -0.4754
     24 C          67.5841   94.3733    9.8179 C.3     1  UNL1        0.2053
     25 C          68.1996   93.1202    9.2691 C.3     1  UNL1        0.0438
     26 C          69.2371   92.4462    8.4210 C.3     1  UNL1        0.0038
     27 C          68.2282   91.6240    9.1667 C.3     1  UNL1        0.0038
@<TRIPOS>BOND
     1    10    11    1
     2    11    12    2
     3    11    13   am
     4    13     8    1
     5     8     9    1
     6     8     6    1
     7     6     7    2
     8     7     1    1
     9     1     2   ar
    10     2     3   ar
    11     3     4   ar
    12     4    15    1
    13    15    16    1
    14    16    17   ar
    15    17    18   ar
    16    18    19   ar
    17    19    23    1
    18    23    24    1
    19    24    25    1
    20    25    26    1
    21    26    27    1
    22    19    20   ar
    23    20    21   ar
    24    21    22    1
    25     4     5   ar
    26     5     1   ar
    27    21    16   ar
    28    27    25    1
    29    13    14    1
