@<TRIPOS>MOLECULE
*****
 37 42 0 0 0
SMALL
GASTEIGER

@<TRIPOS>ATOM
      1 C          62.4065   85.9065   10.8197 C.ar    1  UNL1        0.0846
      2 C          62.1409   86.5441    9.4882 C.ar    1  UNL1        0.0370
      3 C          61.9775   88.0192    9.7050 C.ar    1  UNL1        0.0967
      4 N          62.1420   88.2935   11.1705 N.ar    1  UNL1       -0.2452
      5 N          62.4072   86.9877   11.8594 N.ar    1  UNL1       -0.1730
      6 C          62.6318   84.4445   11.0680 C.3     1  UNL1        0.0757
      7 N          64.5825   85.4448   15.7792 N.pl3   1  UNL1       -0.3441
      8 C          64.0250   84.4706   14.7840 C.ar    1  UNL1        0.1035
      9 C          63.6072   84.9446   13.4237 C.ar    1  UNL1        0.0297
     10 C          63.0496   83.9704   12.4285 C.ar    1  UNL1        0.0090
     11 C          62.9100   82.5223   12.7938 C.ar    1  UNL1        0.1366
     12 N          62.3981   81.3388   12.0276 N.ar    1  UNL1       -0.1258
     13 N          62.4995   80.1334   12.9145 N.ar    1  UNL1       -0.0406
     14 N          63.0741   80.5719   14.2288 N.ar    1  UNL1       -0.1095
     15 C          63.3278   82.0484   14.1542 C.ar    1  UNL1        0.1838
     16 N          63.8853   83.0225   15.1493 N.ar    1  UNL1       -0.3249
     17 H          64.6742   86.3952   15.5395 H       1  UNL1        0.1437
     18 H          64.8567   85.1336   16.6721 H       1  UNL1        0.1437
     19 H          64.1595   82.7115   16.0422 H       1  UNL1        0.1686
     20 C          62.0564   89.6375   11.8311 C.3     1  UNL1        0.1539
     21 C          63.2394   90.1853   12.5729 C.ar    1  UNL1        0.0051
     22 C          63.7860   89.4500   13.7608 C.ar    1  UNL1       -0.0021
     23 C          64.9690   89.9979   14.5026 C.ar    1  UNL1        0.0029
     24 C          65.6055   91.2808   14.0567 C.ar    1  UNL1        0.0375
     25 C          65.0590   92.0160   12.8689 C.ar    1  UNL1        0.1450
     26 C          63.8760   91.4682   12.1271 C.ar    1  UNL1        0.0352
     27 O          65.6955   93.2990   12.4230 O.3     1  UNL1       -0.4538
     28 C          66.5688   93.3188   11.2037 C.ar    1  UNL1        0.1423
     29 C          67.4289   92.1339   10.8778 C.ar    1  UNL1        0.0372
     30 C          68.3023   92.1537    9.6584 C.ar    1  UNL1        0.0028
     31 C          68.3156   93.3585    8.7649 C.ar    1  UNL1       -0.0030
     32 C          67.4555   94.5435    9.0908 C.ar    1  UNL1       -0.0061
     33 C          66.5822   94.5237   10.3102 C.ar    1  UNL1        0.0256
     34 C          65.8473   95.8297   10.3753 C.3     1  UNL1        0.0987
     35 N          66.2666   96.6567    9.1962 N.3     1  UNL1       -0.2900
     36 C          67.2604   95.8618    8.4024 C.3     1  UNL1        0.0957
     37 H          66.6950   97.5250    9.5172 H       1  UNL1        0.1239
@<TRIPOS>BOND
     1     7     8    1
     2     8     9   ar
     3     9    10   ar
     4    10     6    1
     5     6     1    1
     6     1     2   ar
     7     2     3   ar
     8     3     4   ar
     9     4    20    1
    10    20    21    1
    11    21    22   ar
    12    22    23   ar
    13    23    24   ar
    14    24    25   ar
    15    25    27    1
    16    27    28    1
    17    28    29   ar
    18    29    30   ar
    19    30    31   ar
    20    31    32   ar
    21    32    33   ar
    22    33    34    1
    23    34    35    1
    24    35    36    1
    25    25    26   ar
    26     4     5   ar
    27    10    11   ar
    28    11    12   ar
    29    12    13   ar
    30    13    14   ar
    31    14    15   ar
    32    15    16   ar
    33    16     8   ar
    34     5     1   ar
    35    15    11    1
    36    26    21   ar
    37    33    28   ar
    38    36    32    1
    39     7    17    1
    40     7    18    1
    41    35    37    1
    42    16    19    1
@<TRIPOS>MOLECULE
*****
 37 42 0 0 0
SMALL
GASTEIGER

@<TRIPOS>ATOM
      1 C          63.7752   89.4183   15.0613 C.ar    1  UNL1        0.0846
      2 C          63.1861   89.0438   16.3890 C.ar    1  UNL1        0.0370
      3 C          63.3123   87.5578   16.5495 C.ar    1  UNL1        0.0967
      4 N          63.9794   87.0138   15.3211 N.ar    1  UNL1       -0.2452
      5 N          64.2655   88.1637   14.4013 N.ar    1  UNL1       -0.1730
      6 C          63.8593   90.8040   14.4933 C.3     1  UNL1        0.0757
      7 N          68.7897   91.9673   15.6505 N.pl3   1  UNL1       -0.3441
      8 C          67.6541   91.9522   14.6705 C.ar    1  UNL1        0.1035
      9 C          66.3246   91.3857   15.0718 C.ar    1  UNL1        0.0297
     10 C          65.1890   91.3706   14.0919 C.ar    1  UNL1        0.0090
     11 C          65.3831   91.9221   12.7105 C.ar    1  UNL1        0.1366
     12 N          64.4553   92.0416   11.5380 N.ar    1  UNL1       -0.1258
     13 N          65.2115   92.6820   10.4120 N.ar    1  UNL1       -0.0406
     14 N          66.6067   92.9583   10.8885 N.ar    1  UNL1       -0.1095
     15 C          66.7127   92.4887   12.3092 C.ar    1  UNL1        0.1838
     16 N          67.8482   92.5037   13.2891 N.ar    1  UNL1       -0.3249
     17 H          68.6624   91.6053   16.5571 H       1  UNL1        0.1437
     18 H          69.6624   92.3392   15.3870 H       1  UNL1        0.1437
     19 H          68.7209   92.8756   13.0257 H       1  UNL1        0.1686
     20 C          64.3035   85.5729   15.0584 C.3     1  UNL1        0.1539
     21 C          63.9638   84.9572   13.7336 C.ar    1  UNL1        0.0051
     22 C          64.7543   83.7881   13.2250 C.ar    1  UNL1       -0.0021
     23 C          64.4145   83.1724   11.9001 C.ar    1  UNL1        0.0029
     24 C          63.2844   83.7257   11.0837 C.ar    1  UNL1        0.0375
     25 C          62.4939   84.8947   11.5922 C.ar    1  UNL1        0.1450
     26 C          62.8336   85.5104   12.9170 C.ar    1  UNL1        0.0352
     27 O          61.3637   85.4480   10.7757 O.3     1  UNL1       -0.4538
     28 C          61.3633   86.8943   10.3784 C.ar    1  UNL1        0.1423
     29 C          62.2587   87.8670   11.0870 C.ar    1  UNL1        0.0372
     30 C          62.2583   89.3135   10.6898 C.ar    1  UNL1        0.0028
     31 C          61.3624   89.7873    9.5840 C.ar    1  UNL1       -0.0030
     32 C          60.4669   88.8146    8.8753 C.ar    1  UNL1       -0.0061
     33 C          60.4674   87.3682    9.2725 C.ar    1  UNL1        0.0256
     34 C          59.4839   86.6473    8.3990 C.3     1  UNL1        0.0987
     35 N          58.8757   87.6482    7.4618 N.3     1  UNL1       -0.2900
     36 C          59.4832   88.9876    7.7562 C.3     1  UNL1        0.0957
     37 H          57.8664   87.6871    7.6043 H       1  UNL1        0.1239
@<TRIPOS>BOND
     1     7     8    1
     2     8     9   ar
     3     9    10   ar
     4    10     6    1
     5     6     1    1
     6     1     2   ar
     7     2     3   ar
     8     3     4   ar
     9     4    20    1
    10    20    21    1
    11    21    22   ar
    12    22    23   ar
    13    23    24   ar
    14    24    25   ar
    15    25    27    1
    16    27    28    1
    17    28    29   ar
    18    29    30   ar
    19    30    31   ar
    20    31    32   ar
    21    32    33   ar
    22    33    34    1
    23    34    35    1
    24    35    36    1
    25    25    26   ar
    26     4     5   ar
    27    10    11   ar
    28    11    12   ar
    29    12    13   ar
    30    13    14   ar
    31    14    15   ar
    32    15    16   ar
    33    16     8   ar
    34     5     1   ar
    35    15    11    1
    36    26    21   ar
    37    33    28   ar
    38    36    32    1
    39     7    17    1
    40     7    18    1
    41    35    37    1
    42    16    19    1
@<TRIPOS>MOLECULE
*****
 37 42 0 0 0
SMALL
GASTEIGER

@<TRIPOS>ATOM
      1 C          63.8860   86.0338   15.6834 C.ar    1  UNL1        0.0846
      2 C          63.1378   86.2090   16.9716 C.ar    1  UNL1        0.0370
      3 C          62.9057   87.6767   17.1768 C.ar    1  UNL1        0.0967
      4 N          63.5103   88.4085   16.0155 N.ar    1  UNL1       -0.2452
      5 N          64.1163   87.3931   15.0925 N.ar    1  UNL1       -0.1730
      6 C          64.3267   84.7285   15.0903 C.3     1  UNL1        0.0757
      7 N          62.3455   85.6276   10.3714 N.pl3   1  UNL1       -0.3441
      8 C          62.6949   84.6713   11.4731 C.ar    1  UNL1        0.1035
      9 C          63.3361   85.1780   12.7308 C.ar    1  UNL1        0.0297
     10 C          63.6854   84.2217   13.8325 C.ar    1  UNL1        0.0090
     11 C          63.3934   82.7587   13.6762 C.ar    1  UNL1        0.1366
     12 N          63.6231   81.5869   14.5840 N.ar    1  UNL1       -0.1258
     13 N          63.1238   80.3560   13.8872 N.ar    1  UNL1       -0.0406
     14 N          62.5855   80.7670   12.5488 N.ar    1  UNL1       -0.1095
     15 C          62.7522   82.2520   12.4184 C.ar    1  UNL1        0.1838
     16 N          62.4029   83.2083   11.3168 N.ar    1  UNL1       -0.3249
     17 H          62.5371   86.5878   10.4739 H       1  UNL1        0.1437
     18 H          61.9246   85.2950    9.5459 H       1  UNL1        0.1437
     19 H          61.9820   82.8758   10.4913 H       1  UNL1        0.1686
     20 C          63.5093   89.8948   15.8126 C.3     1  UNL1        0.1539
     21 C          63.8123   90.4673   14.4598 C.ar    1  UNL1        0.0051
     22 C          62.9204   90.1528   13.2953 C.ar    1  UNL1       -0.0021
     23 C          63.2235   90.7253   11.9424 C.ar    1  UNL1        0.0029
     24 C          64.4183   91.6124   11.7539 C.ar    1  UNL1        0.0375
     25 C          65.3101   91.9269   12.9182 C.ar    1  UNL1        0.1450
     26 C          65.0071   91.3544   14.2711 C.ar    1  UNL1        0.0352
     27 O          66.5049   92.8140   12.7296 O.3     1  UNL1       -0.4538
     28 C          67.0462   93.0604   11.3527 C.ar    1  UNL1        0.1423
     29 C          67.8789   92.0126   10.6755 C.ar    1  UNL1        0.0372
     30 C          68.4202   92.2590    9.2984 C.ar    1  UNL1        0.0028
     31 C          68.1288   93.5533    8.5985 C.ar    1  UNL1       -0.0030
     32 C          67.2960   94.6012    9.2756 C.ar    1  UNL1       -0.0061
     33 C          66.7547   94.3547   10.6527 C.ar    1  UNL1        0.0256
     34 C          65.9702   95.5646   11.0658 C.3     1  UNL1        0.0987
     35 N          66.0266   96.5588    9.9440 N.3     1  UNL1       -0.2900
     36 C          66.8460   95.9634    8.8377 C.3     1  UNL1        0.0957
     37 H          66.4598   97.4232   10.2689 H       1  UNL1        0.1239
@<TRIPOS>BOND
     1     7     8    1
     2     8     9   ar
     3     9    10   ar
     4    10     6    1
     5     6     1    1
     6     1     2   ar
     7     2     3   ar
     8     3     4   ar
     9     4    20    1
    10    20    21    1
    11    21    22   ar
    12    22    23   ar
    13    23    24   ar
    14    24    25   ar
    15    25    27    1
    16    27    28    1
    17    28    29   ar
    18    29    30   ar
    19    30    31   ar
    20    31    32   ar
    21    32    33   ar
    22    33    34    1
    23    34    35    1
    24    35    36    1
    25    25    26   ar
    26     4     5   ar
    27    10    11   ar
    28    11    12   ar
    29    12    13   ar
    30    13    14   ar
    31    14    15   ar
    32    15    16   ar
    33    16     8   ar
    34     5     1   ar
    35    15    11    1
    36    26    21   ar
    37    33    28   ar
    38    36    32    1
    39     7    17    1
    40     7    18    1
    41    35    37    1
    42    16    19    1
@<TRIPOS>MOLECULE
*****
 37 42 0 0 0
SMALL
GASTEIGER

@<TRIPOS>ATOM
      1 C          62.7958   90.0731   12.2330 C.ar    1  UNL1        0.0846
      2 C          61.9719   90.9628   11.3500 C.ar    1  UNL1        0.0370
      3 C          61.1171   90.0895   10.4803 C.ar    1  UNL1        0.0967
      4 N          61.4127   88.6600   10.8256 N.ar    1  UNL1       -0.2452
      5 N          62.4502   88.6499   11.9089 N.ar    1  UNL1       -0.1730
      6 C          63.7906   90.5269   13.2598 C.3     1  UNL1        0.0757
      7 N          65.9627   93.7186    9.7819 N.pl3   1  UNL1       -0.3441
      8 C          65.8505   93.2147   11.1903 C.ar    1  UNL1        0.1035
      9 C          64.8767   92.1228   11.5208 C.ar    1  UNL1        0.0297
     10 C          64.7645   91.6189   12.9293 C.ar    1  UNL1        0.0090
     11 C          65.6262   92.2070   14.0070 C.ar    1  UNL1        0.1366
     12 N          65.7368   91.9158   15.4743 N.ar    1  UNL1       -0.1258
     13 N          66.7790   92.8278   16.0506 N.ar    1  UNL1       -0.0406
     14 N          67.3125   93.6826   14.9395 N.ar    1  UNL1       -0.1095
     15 C          66.6000   93.2989   13.6764 C.ar    1  UNL1        0.1838
     16 N          66.7122   93.8028   12.2681 N.ar    1  UNL1       -0.3249
     17 H          65.3972   93.3326    9.0744 H       1  UNL1        0.1437
     18 H          66.6019   94.4353    9.5649 H       1  UNL1        0.1437
     19 H          67.3514   94.5194   12.0511 H       1  UNL1        0.1686
     20 C          60.7816   87.4526   10.1979 C.3     1  UNL1        0.1539
     21 C          61.6443   86.3547    9.6501 C.ar    1  UNL1        0.0051
     22 C          61.7326   86.1388    8.1683 C.ar    1  UNL1       -0.0021
     23 C          62.5954   85.0408    7.6205 C.ar    1  UNL1        0.0029
     24 C          63.3698   84.1588    8.5544 C.ar    1  UNL1        0.0375
     25 C          63.2815   84.3746   10.0361 C.ar    1  UNL1        0.1450
     26 C          62.4187   85.4725   10.5839 C.ar    1  UNL1        0.0352
     27 O          64.0559   83.4925   10.9700 O.3     1  UNL1       -0.4538
     28 C          63.3645   82.8357   12.1277 C.ar    1  UNL1        0.1423
     29 C          62.8584   81.4295   11.9994 C.ar    1  UNL1        0.0372
     30 C          62.1669   80.7726   13.1572 C.ar    1  UNL1        0.0028
     31 C          61.9815   81.5220   14.4433 C.ar    1  UNL1       -0.0030
     32 C          62.4875   82.9283   14.5717 C.ar    1  UNL1       -0.0061
     33 C          63.1790   83.5851   13.4139 C.ar    1  UNL1        0.0256
     34 C          63.5688   84.9717   13.8328 C.3     1  UNL1        0.0987
     35 N          63.1181   85.1718   15.2494 N.3     1  UNL1       -0.2900
     36 C          62.4499   83.9089   15.7060 C.3     1  UNL1        0.0957
     37 H          62.4589   85.9488   15.2965 H       1  UNL1        0.1239
@<TRIPOS>BOND
     1     7     8    1
     2     8     9   ar
     3     9    10   ar
     4    10     6    1
     5     6     1    1
     6     1     2   ar
     7     2     3   ar
     8     3     4   ar
     9     4    20    1
    10    20    21    1
    11    21    22   ar
    12    22    23   ar
    13    23    24   ar
    14    24    25   ar
    15    25    27    1
    16    27    28    1
    17    28    29   ar
    18    29    30   ar
    19    30    31   ar
    20    31    32   ar
    21    32    33   ar
    22    33    34    1
    23    34    35    1
    24    35    36    1
    25    25    26   ar
    26     4     5   ar
    27    10    11   ar
    28    11    12   ar
    29    12    13   ar
    30    13    14   ar
    31    14    15   ar
    32    15    16   ar
    33    16     8   ar
    34     5     1   ar
    35    15    11    1
    36    26    21   ar
    37    33    28   ar
    38    36    32    1
    39     7    17    1
    40     7    18    1
    41    35    37    1
    42    16    19    1
@<TRIPOS>MOLECULE
*****
 37 42 0 0 0
SMALL
GASTEIGER

@<TRIPOS>ATOM
      1 C          61.9731   90.4305   10.7439 C.ar    1  UNL1        0.0846
      2 C          60.5299   90.8293   10.8343 C.ar    1  UNL1        0.0370
      3 C          59.6969   89.6512   10.4243 C.ar    1  UNL1        0.0967
      4 N          60.6251   88.5242   10.0806 N.ar    1  UNL1       -0.2452
      5 N          62.0319   89.0059   10.2781 N.ar    1  UNL1       -0.1730
      6 C          63.1506   91.3030   11.0632 C.3     1  UNL1        0.0757
      7 N          63.9051   88.6716   15.4800 N.pl3   1  UNL1       -0.3441
      8 C          64.2876   89.7838   14.5488 C.ar    1  UNL1        0.1035
      9 C          63.5279   89.9873   13.2717 C.ar    1  UNL1        0.0297
     10 C          63.9104   91.0994   12.3405 C.ar    1  UNL1        0.0090
     11 C          65.0527   92.0079   12.6867 C.ar    1  UNL1        0.1366
     12 N          65.6552   93.1803   11.9708 N.ar    1  UNL1       -0.1258
     13 N          66.7873   93.7013   12.8056 N.ar    1  UNL1       -0.0406
     14 N          66.8845   92.8509   14.0374 N.ar    1  UNL1       -0.1095
     15 C          65.8124   91.8043   13.9639 C.ar    1  UNL1        0.1838
     16 N          65.4299   90.6922   14.8950 N.ar    1  UNL1       -0.3249
     17 H          63.1554   88.0754   15.2528 H       1  UNL1        0.1437
     18 H          64.4037   88.5381   16.3183 H       1  UNL1        0.1437
     19 H          65.9285   90.5586   15.7333 H       1  UNL1        0.1686
     20 C          60.2182   87.1558    9.6201 C.3     1  UNL1        0.1539
     21 C          61.2628   86.1624    9.2058 C.ar    1  UNL1        0.0051
     22 C          61.4853   85.8706    7.7513 C.ar    1  UNL1       -0.0021
     23 C          62.5300   84.8771    7.3369 C.ar    1  UNL1        0.0029
     24 C          63.3521   84.1755    8.3770 C.ar    1  UNL1        0.0375
     25 C          63.1296   84.4673    9.8314 C.ar    1  UNL1        0.1450
     26 C          62.0850   85.4607   10.2457 C.ar    1  UNL1        0.0352
     27 O          63.9518   83.7656   10.8715 O.3     1  UNL1       -0.4538
     28 C          63.2859   83.1615   12.0721 C.ar    1  UNL1        0.1423
     29 C          62.7096   81.7789   11.9937 C.ar    1  UNL1        0.0372
     30 C          62.0436   81.1747   13.1944 C.ar    1  UNL1        0.0028
     31 C          61.9540   81.9532   14.4734 C.ar    1  UNL1       -0.0030
     32 C          62.5303   83.3359   14.5518 C.ar    1  UNL1       -0.0061
     33 C          63.1963   83.9400   13.3511 C.ar    1  UNL1        0.0256
     34 C          63.6693   85.3134   13.7254 C.3     1  UNL1        0.0987
     35 N          63.2957   85.5580   15.1574 N.3     1  UNL1       -0.2900
     36 C          62.5918   84.3359   15.6681 C.3     1  UNL1        0.0957
     37 H          62.6763   86.3660   15.2204 H       1  UNL1        0.1239
@<TRIPOS>BOND
     1     7     8    1
     2     8     9   ar
     3     9    10   ar
     4    10     6    1
     5     6     1    1
     6     1     2   ar
     7     2     3   ar
     8     3     4   ar
     9     4    20    1
    10    20    21    1
    11    21    22   ar
    12    22    23   ar
    13    23    24   ar
    14    24    25   ar
    15    25    27    1
    16    27    28    1
    17    28    29   ar
    18    29    30   ar
    19    30    31   ar
    20    31    32   ar
    21    32    33   ar
    22    33    34    1
    23    34    35    1
    24    35    36    1
    25    25    26   ar
    26     4     5   ar
    27    10    11   ar
    28    11    12   ar
    29    12    13   ar
    30    13    14   ar
    31    14    15   ar
    32    15    16   ar
    33    16     8   ar
    34     5     1   ar
    35    15    11    1
    36    26    21   ar
    37    33    28   ar
    38    36    32    1
    39     7    17    1
    40     7    18    1
    41    35    37    1
    42    16    19    1
@<TRIPOS>MOLECULE
*****
 37 42 0 0 0
SMALL
GASTEIGER

@<TRIPOS>ATOM
      1 C          62.4310   90.5436   10.8486 C.ar    1  UNL1        0.0846
      2 C          61.0234   90.9554   11.1631 C.ar    1  UNL1        0.0370
      3 C          60.1251   89.7874   10.8822 C.ar    1  UNL1        0.0967
      4 N          60.9775   88.6538   10.3941 N.ar    1  UNL1       -0.2452
      5 N          62.4027   89.1212   10.3734 N.ar    1  UNL1       -0.1730
      6 C          63.6526   91.4033   10.9854 C.3     1  UNL1        0.0757
      7 N          67.6721   93.0637   13.8291 N.pl3   1  UNL1       -0.3441
      8 C          66.3681   92.3293   13.7273 C.ar    1  UNL1        0.1035
      9 C          65.6624   92.2335   12.4073 C.ar    1  UNL1        0.0297
     10 C          64.3583   91.4991   12.3055 C.ar    1  UNL1        0.0090
     11 C          63.7603   90.8605   13.5239 C.ar    1  UNL1        0.1366
     12 N          62.4977   90.0770   13.7291 N.ar    1  UNL1       -0.1258
     13 N          62.4233   89.6885   15.1760 N.ar    1  UNL1       -0.0406
     14 N          63.6398   90.2320   15.8651 N.ar    1  UNL1       -0.1095
     15 C          64.4661   90.9563   14.8440 C.ar    1  UNL1        0.1838
     16 N          65.7700   91.6907   14.9457 N.ar    1  UNL1       -0.3249
     17 H          68.0647   93.4829   13.0295 H       1  UNL1        0.1437
     18 H          68.1354   93.1266   14.6955 H       1  UNL1        0.1437
     19 H          66.2333   91.7536   15.8121 H       1  UNL1        0.1686
     20 C          60.4904   87.2919    9.9966 C.3     1  UNL1        0.1539
     21 C          61.4646   86.2577    9.5158 C.ar    1  UNL1        0.0051
     22 C          61.6580   86.0359    8.0449 C.ar    1  UNL1       -0.0021
     23 C          62.6323   85.0016    7.5641 C.ar    1  UNL1        0.0029
     24 C          63.4132   84.1893    8.5541 C.ar    1  UNL1        0.0375
     25 C          63.2198   84.4111   10.0250 C.ar    1  UNL1        0.1450
     26 C          62.2456   85.4453   10.5057 C.ar    1  UNL1        0.0352
     27 O          64.0007   83.5986   11.0150 O.3     1  UNL1       -0.4538
     28 C          63.3087   82.9919   12.1993 C.ar    1  UNL1        0.1423
     29 C          62.7315   81.6107   12.1043 C.ar    1  UNL1        0.0372
     30 C          62.0393   81.0038   13.2886 C.ar    1  UNL1        0.0028
     31 C          61.9245   81.7782   14.5681 C.ar    1  UNL1       -0.0030
     32 C          62.5017   83.1595   14.6633 C.ar    1  UNL1       -0.0061
     33 C          63.1938   83.7663   13.4789 C.ar    1  UNL1        0.0256
     34 C          63.6615   85.1374   13.8677 C.3     1  UNL1        0.0987
     35 N          63.2585   85.3780   15.2924 N.3     1  UNL1       -0.2900
     36 C          62.5417   84.1556   15.7840 C.3     1  UNL1        0.0957
     37 H          62.6394   86.1869   15.3451 H       1  UNL1        0.1239
@<TRIPOS>BOND
     1     7     8    1
     2     8     9   ar
     3     9    10   ar
     4    10     6    1
     5     6     1    1
     6     1     2   ar
     7     2     3   ar
     8     3     4   ar
     9     4    20    1
    10    20    21    1
    11    21    22   ar
    12    22    23   ar
    13    23    24   ar
    14    24    25   ar
    15    25    27    1
    16    27    28    1
    17    28    29   ar
    18    29    30   ar
    19    30    31   ar
    20    31    32   ar
    21    32    33   ar
    22    33    34    1
    23    34    35    1
    24    35    36    1
    25    25    26   ar
    26     4     5   ar
    27    10    11   ar
    28    11    12   ar
    29    12    13   ar
    30    13    14   ar
    31    14    15   ar
    32    15    16   ar
    33    16     8   ar
    34     5     1   ar
    35    15    11    1
    36    26    21   ar
    37    33    28   ar
    38    36    32    1
    39     7    17    1
    40     7    18    1
    41    35    37    1
    42    16    19    1
@<TRIPOS>MOLECULE
*****
 37 42 0 0 0
SMALL
GASTEIGER

@<TRIPOS>ATOM
      1 C          63.9895   86.0706   15.7359 C.ar    1  UNL1        0.0846
      2 C          63.1264   86.2268   16.9528 C.ar    1  UNL1        0.0370
      3 C          62.8363   87.6876   17.1309 C.ar    1  UNL1        0.0967
      4 N          63.5200   88.4343   16.0241 N.ar    1  UNL1       -0.2452
      5 N          64.2328   87.4350   15.1620 N.ar    1  UNL1       -0.1730
      6 C          64.5168   84.7773   15.1890 C.3     1  UNL1        0.0757
      7 N          62.8762   80.4101   12.9006 N.pl3   1  UNL1       -0.3441
      8 C          62.9789   81.9065   12.9211 C.ar    1  UNL1        0.1035
      9 C          63.6965   82.5937   14.0447 C.ar    1  UNL1        0.0297
     10 C          63.7992   84.0901   14.0652 C.ar    1  UNL1        0.0090
     11 C          63.1842   84.8991   12.9620 C.ar    1  UNL1        0.1366
     12 N          63.1247   86.3774   12.7147 N.ar    1  UNL1       -0.1258
     13 N          62.3703   86.6038   11.4381 N.ar    1  UNL1       -0.0406
     14 N          61.9636   85.2654   10.8964 N.ar    1  UNL1       -0.1095
     15 C          62.4666   84.2119   11.8383 C.ar    1  UNL1        0.1838
     16 N          62.3640   82.7155   11.8178 N.ar    1  UNL1       -0.3249
     17 H          63.2798   79.8790   13.6247 H       1  UNL1        0.1437
     18 H          62.4052   79.9590   12.1630 H       1  UNL1        0.1437
     19 H          61.8930   82.2645   11.0803 H       1  UNL1        0.1686
     20 C          63.4954   89.9197   15.8160 C.3     1  UNL1        0.1539
     21 C          63.7846   90.4919   14.4600 C.ar    1  UNL1        0.0051
     22 C          62.9194   90.1247   13.2909 C.ar    1  UNL1       -0.0021
     23 C          63.2087   90.6970   11.9348 C.ar    1  UNL1        0.0029
     24 C          64.3630   91.6364   11.7478 C.ar    1  UNL1        0.0375
     25 C          65.2282   92.0035   12.9169 C.ar    1  UNL1        0.1450
     26 C          64.9389   91.4313   14.2729 C.ar    1  UNL1        0.0352
     27 O          66.3826   92.9429   12.7299 O.3     1  UNL1       -0.4538
     28 C          66.9843   93.1301   11.3688 C.ar    1  UNL1        0.1423
     29 C          67.7926   92.0295   10.7482 C.ar    1  UNL1        0.0372
     30 C          68.3944   92.2166    9.3870 C.ar    1  UNL1        0.0028
     31 C          68.1877   93.5045    8.6463 C.ar    1  UNL1       -0.0030
     32 C          67.3793   94.6053    9.2668 C.ar    1  UNL1       -0.0061
     33 C          66.7776   94.4180   10.6280 C.ar    1  UNL1        0.0256
     34 C          66.0343   95.6717   10.9827 C.3     1  UNL1        0.0987
     35 N          66.1767   96.6338    9.8406 N.3     1  UNL1       -0.2900
     36 C          67.0079   95.9746    8.7803 C.3     1  UNL1        0.0957
     37 H          66.6366   97.4859   10.1611 H       1  UNL1        0.1239
@<TRIPOS>BOND
     1     7     8    1
     2     8     9   ar
     3     9    10   ar
     4    10     6    1
     5     6     1    1
     6     1     2   ar
     7     2     3   ar
     8     3     4   ar
     9     4    20    1
    10    20    21    1
    11    21    22   ar
    12    22    23   ar
    13    23    24   ar
    14    24    25   ar
    15    25    27    1
    16    27    28    1
    17    28    29   ar
    18    29    30   ar
    19    30    31   ar
    20    31    32   ar
    21    32    33   ar
    22    33    34    1
    23    34    35    1
    24    35    36    1
    25    25    26   ar
    26     4     5   ar
    27    10    11   ar
    28    11    12   ar
    29    12    13   ar
    30    13    14   ar
    31    14    15   ar
    32    15    16   ar
    33    16     8   ar
    34     5     1   ar
    35    15    11    1
    36    26    21   ar
    37    33    28   ar
    38    36    32    1
    39     7    17    1
    40     7    18    1
    41    35    37    1
    42    16    19    1
@<TRIPOS>MOLECULE
*****
 37 42 0 0 0
SMALL
GASTEIGER

@<TRIPOS>ATOM
      1 C          62.2778   90.4461   10.8793 C.ar    1  UNL1        0.0846
      2 C          60.8522   90.9059   10.9592 C.ar    1  UNL1        0.0370
      3 C          59.9733   89.7668   10.5353 C.ar    1  UNL1        0.0967
      4 N          60.8556   88.6029   10.1935 N.ar    1  UNL1       -0.2452
      5 N          62.2799   89.0227   10.4061 N.ar    1  UNL1       -0.1730
      6 C          63.4886   91.2657   11.2139 C.3     1  UNL1        0.0757
      7 N          63.1235   89.7778   16.1792 N.pl3   1  UNL1       -0.3441
      8 C          63.8229   90.5560   15.1043 C.ar    1  UNL1        0.1035
      9 C          63.3061   90.5218   13.6966 C.ar    1  UNL1        0.0297
     10 C          64.0055   91.3000   12.6217 C.ar    1  UNL1        0.0090
     11 C          65.2217   92.1124   12.9546 C.ar    1  UNL1        0.1366
     12 N          66.1138   92.9752   12.1122 N.ar    1  UNL1       -0.1258
     13 N          67.1820   93.5426   12.9994 N.ar    1  UNL1       -0.0406
     14 N          66.9500   93.0306   14.3900 N.ar    1  UNL1       -0.1095
     15 C          65.7385   92.1466   14.3624 C.ar    1  UNL1        0.1838
     16 N          65.0391   91.3684   15.4372 N.ar    1  UNL1       -0.3249
     17 H          62.3252   89.2446   15.9607 H       1  UNL1        0.1437
     18 H          63.4627   89.8003   17.1031 H       1  UNL1        0.1437
     19 H          65.3782   91.3909   16.3612 H       1  UNL1        0.1686
     20 C          60.3946   87.2556    9.7218 C.3     1  UNL1        0.1539
     21 C          61.3992   86.2235    9.3029 C.ar    1  UNL1        0.0051
     22 C          61.5465   85.8650    7.8538 C.ar    1  UNL1       -0.0021
     23 C          62.5511   84.8328    7.4349 C.ar    1  UNL1        0.0029
     24 C          63.4084   84.1591    8.4651 C.ar    1  UNL1        0.0375
     25 C          63.2610   84.5176    9.9142 C.ar    1  UNL1        0.1450
     26 C          62.2564   85.5497   10.3330 C.ar    1  UNL1        0.0352
     27 O          64.1182   83.8438   10.9444 O.3     1  UNL1       -0.4538
     28 C          63.6200   83.6905   12.3508 C.ar    1  UNL1        0.1423
     29 C          63.7301   84.8347   13.3144 C.ar    1  UNL1        0.0372
     30 C          63.2318   84.6814   14.7210 C.ar    1  UNL1        0.0028
     31 C          62.6234   83.3838   15.1638 C.ar    1  UNL1       -0.0030
     32 C          62.5132   82.2395   14.2001 C.ar    1  UNL1       -0.0061
     33 C          63.0115   82.3929   12.7936 C.ar    1  UNL1        0.0256
     34 C          62.7709   81.0995   12.0730 C.3     1  UNL1        0.0987
     35 N          62.1239   80.1468   13.0342 N.3     1  UNL1       -0.2900
     36 C          61.9647   80.8514   14.3487 C.3     1  UNL1        0.0957
     37 H          62.7121   79.3219   13.1526 H       1  UNL1        0.1239
@<TRIPOS>BOND
     1     7     8    1
     2     8     9   ar
     3     9    10   ar
     4    10     6    1
     5     6     1    1
     6     1     2   ar
     7     2     3   ar
     8     3     4   ar
     9     4    20    1
    10    20    21    1
    11    21    22   ar
    12    22    23   ar
    13    23    24   ar
    14    24    25   ar
    15    25    27    1
    16    27    28    1
    17    28    29   ar
    18    29    30   ar
    19    30    31   ar
    20    31    32   ar
    21    32    33   ar
    22    33    34    1
    23    34    35    1
    24    35    36    1
    25    25    26   ar
    26     4     5   ar
    27    10    11   ar
    28    11    12   ar
    29    12    13   ar
    30    13    14   ar
    31    14    15   ar
    32    15    16   ar
    33    16     8   ar
    34     5     1   ar
    35    15    11    1
    36    26    21   ar
    37    33    28   ar
    38    36    32    1
    39     7    17    1
    40     7    18    1
    41    35    37    1
    42    16    19    1
@<TRIPOS>MOLECULE
*****
 37 42 0 0 0
SMALL
GASTEIGER

@<TRIPOS>ATOM
      1 C          64.2467   85.5383   15.2128 C.ar    1  UNL1        0.0846
      2 C          63.4497   85.5709   16.4831 C.ar    1  UNL1        0.0370
      3 C          63.0834   86.9981   16.7639 C.ar    1  UNL1        0.0967
      4 N          63.6541   87.8476   15.6673 N.ar    1  UNL1       -0.2452
      5 N          64.3731   86.9453   14.7086 N.ar    1  UNL1       -0.1730
      6 C          64.8172   84.3137   14.5611 C.3     1  UNL1        0.0757
      7 N          60.8007   81.0194   14.6888 N.pl3   1  UNL1       -0.3441
      8 C          61.9020   81.6964   13.9278 C.ar    1  UNL1        0.1035
      9 C          62.8089   82.6665   14.6249 C.ar    1  UNL1        0.0297
     10 C          63.9102   83.3435   13.8639 C.ar    1  UNL1        0.0090
     11 C          64.1043   83.0502   12.4057 C.ar    1  UNL1        0.1366
     12 N          65.0959   83.5606   11.4026 N.ar    1  UNL1       -0.1258
     13 N          64.8016   82.9059   10.0855 N.ar    1  UNL1       -0.0406
     14 N          63.6282   81.9908   10.2746 N.ar    1  UNL1       -0.1095
     15 C          63.1973   82.0800   11.7086 C.ar    1  UNL1        0.1838
     16 N          62.0961   81.4031   12.4696 N.ar    1  UNL1       -0.3249
     17 H          60.6732   81.2119   15.6459 H       1  UNL1        0.1437
     18 H          60.2054   80.3827   14.2312 H       1  UNL1        0.1437
     19 H          61.5007   80.7663   12.0121 H       1  UNL1        0.1686
     20 C          63.5281   89.3377   15.5498 C.3     1  UNL1        0.1539
     21 C          63.6667   89.9989   14.2107 C.ar    1  UNL1        0.0051
     22 C          64.7641   90.9943   13.9757 C.ar    1  UNL1       -0.0021
     23 C          64.9027   91.6555   12.6364 C.ar    1  UNL1        0.0029
     24 C          63.9441   91.3214   11.5322 C.ar    1  UNL1        0.0375
     25 C          62.8469   90.3260   11.7672 C.ar    1  UNL1        0.1450
     26 C          62.7082   89.6648   13.1063 C.ar    1  UNL1        0.0352
     27 O          61.8883   89.9918   10.6628 O.3     1  UNL1       -0.4538
     28 C          61.6598   88.5609   10.2753 C.ar    1  UNL1        0.1423
     29 C          62.4015   87.4650   10.9816 C.ar    1  UNL1        0.0372
     30 C          62.1731   86.0340   10.5942 C.ar    1  UNL1        0.0028
     31 C          61.2029   85.6990    9.5004 C.ar    1  UNL1       -0.0030
     32 C          60.4611   86.7948    8.7940 C.ar    1  UNL1       -0.0061
     33 C          60.6896   88.2258    9.1815 C.ar    1  UNL1        0.0256
     34 C          59.8202   89.0857    8.3128 C.3     1  UNL1        0.0987
     35 N          59.0544   88.1862    7.3884 N.3     1  UNL1       -0.2900
     36 C          59.4505   86.7704    7.6858 C.3     1  UNL1        0.0957
     37 H          59.2798   88.4125    6.4197 H       1  UNL1        0.1239
@<TRIPOS>BOND
     1     7     8    1
     2     8     9   ar
     3     9    10   ar
     4    10     6    1
     5     6     1    1
     6     1     2   ar
     7     2     3   ar
     8     3     4   ar
     9     4    20    1
    10    20    21    1
    11    21    22   ar
    12    22    23   ar
    13    23    24   ar
    14    24    25   ar
    15    25    27    1
    16    27    28    1
    17    28    29   ar
    18    29    30   ar
    19    30    31   ar
    20    31    32   ar
    21    32    33   ar
    22    33    34    1
    23    34    35    1
    24    35    36    1
    25    25    26   ar
    26     4     5   ar
    27    10    11   ar
    28    11    12   ar
    29    12    13   ar
    30    13    14   ar
    31    14    15   ar
    32    15    16   ar
    33    16     8   ar
    34     5     1   ar
    35    15    11    1
    36    26    21   ar
    37    33    28   ar
    38    36    32    1
    39     7    17    1
    40     7    18    1
    41    35    37    1
    42    16    19    1
