@<TRIPOS>MOLECULE
*****
 28 31 0 0 0
SMALL
GASTEIGER

@<TRIPOS>ATOM
      1 C          62.1330   86.4784   11.2685 C.ar    1  UNL1        0.1185
      2 S          61.7614   85.7393   10.0173 S.2     1  UNL1       -0.0777
      3 C          60.9815   86.6741    9.1410 C.ar    1  UNL1        0.0500
      4 C          60.3576   86.4963    7.7885 C.ar    1  UNL1        0.1053
      5 N          59.6234   87.6355    7.1458 N.ar    1  UNL1       -0.2418
      6 C          59.5131   88.9524    7.8554 C.ar    1  UNL1        0.0990
      7 C          60.1370   89.1301    9.2078 C.ar    1  UNL1        0.0224
      8 C          60.8712   87.9910    9.8506 C.ar    1  UNL1        0.0232
      9 C          61.5829   87.8700   11.1655 C.ar    1  UNL1        0.0613
     10 C          62.9172   85.9233   12.4205 C.2     1  UNL1        0.3485
     11 O          63.6120   86.8520   13.3716 O.2     1  UNL1       -0.2443
     12 O          63.0065   84.4396   12.6214 O.3     1  UNL1       -0.4451
     13 C          64.2703   82.9504   10.9080 C.3     1  UNL1        0.0513
     14 C          64.2439   83.6998   12.2072 C.3     1  UNL1        0.2089
     15 N          61.7202   88.9510   12.1964 N.pl3   1  UNL1       -0.3120
     16 H          61.0880   88.9959   12.9497 H       1  UNL1        0.1522
     17 C          62.8207   89.9634   12.0795 C.ar    1  UNL1        0.0480
     18 C          63.0132   90.7173   10.7970 C.ar    1  UNL1        0.0146
     19 C          64.1137   91.7298   10.6800 C.ar    1  UNL1        0.0022
     20 C          65.0218   91.9885   11.8456 C.ar    1  UNL1        0.0128
     21 C          64.8293   91.2347   13.1280 C.ar    1  UNL1       -0.0193
     22 C          63.7288   90.2222   13.2450 C.ar    1  UNL1        0.0104
     23 C          65.8727   91.6998   14.1001 C.3     1  UNL1        0.0328
     24 C          66.7101   92.7410   13.4184 C.3     1  UNL1        0.0538
     25 C          66.1841   92.9194   12.0250 C.2     1  UNL1        0.0968
     26 N          66.7255   93.8631   10.9924 N.2     1  UNL1       -0.0908
     27 O          66.0926   93.9322    9.6342 O.2     1  UNL1       -0.4090
     28 H          66.4308   94.5217    8.9892 H       1  UNL1        0.3278
@<TRIPOS>BOND
     1    13    14    1
     2    14    12    1
     3    12    10    1
     4    10    11    2
     5    10     1    1
     6     1     2   ar
     7     2     3   ar
     8     3     4   ar
     9     4     5   ar
    10     5     6   ar
    11     6     7   ar
    12     7     8   ar
    13     8     9   ar
    14     9    15    1
    15    15    17    1
    16    17    18   ar
    17    18    19   ar
    18    19    20   ar
    19    20    21   ar
    20    21    22   ar
    21    21    23    1
    22    23    24    1
    23    24    25    1
    24    25    26    2
    25    26    27    1
    26     9     1   ar
    27    22    17   ar
    28     8     3   ar
    29    25    20    1
    30    15    16    1
    31    27    28    1
@<TRIPOS>MOLECULE
*****
 28 31 0 0 0
SMALL
GASTEIGER

@<TRIPOS>ATOM
      1 C          64.3391   90.6424   14.3712 C.ar    1  UNL1        0.1185
      2 S          65.7957   90.9908   14.2883 S.2     1  UNL1       -0.0777
      3 C          66.0351   91.6730   12.9740 C.ar    1  UNL1        0.0500
      4 C          67.2757   92.2370   12.3472 C.ar    1  UNL1        0.1053
      5 N          67.2076   92.8741   10.9910 N.ar    1  UNL1       -0.2418
      6 C          65.8989   92.9473   10.2616 C.ar    1  UNL1        0.0990
      7 C          64.6584   92.3833   10.8884 C.ar    1  UNL1        0.0224
      8 C          64.7265   91.7461   12.2446 C.ar    1  UNL1        0.0232
      9 C          63.6783   91.1092   13.1081 C.ar    1  UNL1        0.0613
     10 C          63.6622   89.9489   15.5161 C.2     1  UNL1        0.3485
     11 O          63.1711   90.7435   16.6896 O.2     1  UNL1       -0.2443
     12 O          63.4765   88.4607   15.4875 O.3     1  UNL1       -0.4451
     13 C          64.5422   86.1662   14.8962 C.3     1  UNL1        0.0513
     14 C          64.3232   87.6165   14.5817 C.3     1  UNL1        0.2089
     15 N          62.2245   90.9644   12.7681 N.pl3   1  UNL1       -0.3120
     16 H          61.5535   91.5163   13.2311 H       1  UNL1        0.1522
     17 C          61.7932   89.9790   11.7229 C.ar    1  UNL1        0.0480
     18 C          60.6529   90.3092   10.8059 C.ar    1  UNL1        0.0146
     19 C          60.2214   89.3237    9.7605 C.ar    1  UNL1        0.0022
     20 C          60.9303   88.0080    9.6322 C.ar    1  UNL1        0.0128
     21 C          62.0706   87.6778   10.5491 C.ar    1  UNL1       -0.0193
     22 C          62.5020   88.6633   11.5944 C.ar    1  UNL1        0.0104
     23 C          62.5753   86.3122   10.1879 C.3     1  UNL1        0.0328
     24 C          61.7470   85.7985    9.0478 C.3     1  UNL1        0.0538
     25 C          60.7303   86.8465    8.7043 C.2     1  UNL1        0.0968
     26 N          59.6953   86.7500    7.6229 N.2     1  UNL1       -0.0908
     27 O          58.7407   87.8844    7.3949 O.2     1  UNL1       -0.4090
     28 H          58.0942   87.8241    6.7194 H       1  UNL1        0.3278
@<TRIPOS>BOND
     1    13    14    1
     2    14    12    1
     3    12    10    1
     4    10    11    2
     5    10     1    1
     6     1     2   ar
     7     2     3   ar
     8     3     4   ar
     9     4     5   ar
    10     5     6   ar
    11     6     7   ar
    12     7     8   ar
    13     8     9   ar
    14     9    15    1
    15    15    17    1
    16    17    18   ar
    17    18    19   ar
    18    19    20   ar
    19    20    21   ar
    20    21    22   ar
    21    21    23    1
    22    23    24    1
    23    24    25    1
    24    25    26    2
    25    26    27    1
    26     9     1   ar
    27    22    17   ar
    28     8     3   ar
    29    25    20    1
    30    15    16    1
    31    27    28    1
@<TRIPOS>MOLECULE
*****
 28 31 0 0 0
SMALL
GASTEIGER

@<TRIPOS>ATOM
      1 C          61.2218   87.4498    9.8608 C.ar    1  UNL1        0.1185
      2 S          61.5822   86.0589    9.4303 S.2     1  UNL1       -0.0777
      3 C          62.3724   85.4219   10.5347 C.ar    1  UNL1        0.0500
      4 C          62.9920   84.0626   10.6707 C.ar    1  UNL1        0.1053
      5 N          63.7394   83.7006   11.9197 N.ar    1  UNL1       -0.2418
      6 C          63.8674   84.6979   13.0328 C.ar    1  UNL1        0.0990
      7 C          63.2478   86.0571   12.8969 C.ar    1  UNL1        0.0224
      8 C          62.5004   86.4191   11.6479 C.ar    1  UNL1        0.0232
      9 C          61.7892   87.6725   11.2313 C.ar    1  UNL1        0.0613
     10 C          60.4325   88.4436    9.0611 C.2     1  UNL1        0.3485
     11 O          60.0117   89.7420    9.6833 O.2     1  UNL1       -0.2443
     12 O          60.0640   88.1390    7.6394 O.3     1  UNL1       -0.4451
     13 C          59.3661   90.0191    5.9877 C.3     1  UNL1        0.0513
     14 C          58.9927   88.9353    6.9552 C.3     1  UNL1        0.2089
     15 N          61.6670   88.9280   12.0429 N.pl3   1  UNL1       -0.3120
     16 H          60.8685   89.0792   12.5986 H       1  UNL1        0.1522
     17 C          62.7613   89.9532   12.0079 C.ar    1  UNL1        0.0480
     18 C          63.0236   90.7278   10.7504 C.ar    1  UNL1        0.0146
     19 C          64.1179   91.7530   10.7153 C.ar    1  UNL1        0.0022
     20 C          64.9501   92.0037   11.9379 C.ar    1  UNL1        0.0128
     21 C          64.6879   91.2292   13.1954 C.ar    1  UNL1       -0.0193
     22 C          63.5936   90.2040   13.2304 C.ar    1  UNL1        0.0104
     23 C          65.6648   91.6905   14.2360 C.3     1  UNL1        0.0328
     24 C          66.5307   92.7501   13.6216 C.3     1  UNL1        0.0538
     25 C          66.0890   92.9437   12.2013 C.2     1  UNL1        0.0968
     26 N          66.6820   93.9080   11.2171 N.2     1  UNL1       -0.0908
     27 O          66.1326   93.9906    9.8239 O.2     1  UNL1       -0.4090
     28 H          66.5030   94.5929    9.2091 H       1  UNL1        0.3278
@<TRIPOS>BOND
     1    13    14    1
     2    14    12    1
     3    12    10    1
     4    10    11    2
     5    10     1    1
     6     1     2   ar
     7     2     3   ar
     8     3     4   ar
     9     4     5   ar
    10     5     6   ar
    11     6     7   ar
    12     7     8   ar
    13     8     9   ar
    14     9    15    1
    15    15    17    1
    16    17    18   ar
    17    18    19   ar
    18    19    20   ar
    19    20    21   ar
    20    21    22   ar
    21    21    23    1
    22    23    24    1
    23    24    25    1
    24    25    26    2
    25    26    27    1
    26     9     1   ar
    27    22    17   ar
    28     8     3   ar
    29    25    20    1
    30    15    16    1
    31    27    28    1
@<TRIPOS>MOLECULE
*****
 28 31 0 0 0
SMALL
GASTEIGER

@<TRIPOS>ATOM
      1 C          61.3296   87.5016    9.8778 C.ar    1  UNL1        0.1185
      2 S          61.7121   86.1292    9.4085 S.2     1  UNL1       -0.0777
      3 C          62.4631   85.4528   10.5169 C.ar    1  UNL1        0.0500
      4 C          63.0831   84.0912   10.6242 C.ar    1  UNL1        0.1053
      5 N          63.7848   83.6840   11.8858 N.ar    1  UNL1       -0.2418
      6 C          63.8665   84.6383   13.0402 C.ar    1  UNL1        0.0990
      7 C          63.2464   85.9999   12.9329 C.ar    1  UNL1        0.0224
      8 C          62.5448   86.4072   11.6712 C.ar    1  UNL1        0.0232
      9 C          61.8442   87.6734   11.2762 C.ar    1  UNL1        0.0613
     10 C          60.5665   88.5228    9.0874 C.2     1  UNL1        0.3485
     11 O          60.2486   89.8569    9.6948 O.2     1  UNL1       -0.2443
     12 O          60.1213   88.2099    7.6896 O.3     1  UNL1       -0.4451
     13 C          59.4055   89.9994    5.9473 C.3     1  UNL1        0.0513
     14 C          59.0504   89.0360    7.0409 C.3     1  UNL1        0.2089
     15 N          61.6861   88.8966   12.1298 N.pl3   1  UNL1       -0.3120
     16 H          60.8145   89.1019   12.5391 H       1  UNL1        0.1522
     17 C          62.8557   89.8070   12.3599 C.ar    1  UNL1        0.0480
     18 C          63.6153   89.7404   13.6517 C.ar    1  UNL1        0.0146
     19 C          64.7850   90.6508   13.8818 C.ar    1  UNL1        0.0022
     20 C          65.1951   91.6279   12.8201 C.ar    1  UNL1        0.0128
     21 C          64.4355   91.6945   11.5284 C.ar    1  UNL1       -0.0193
     22 C          63.2658   90.7841   11.2983 C.ar    1  UNL1        0.0104
     23 C          65.0683   92.7516   10.6727 C.3     1  UNL1        0.0328
     24 C          66.2189   93.3382   11.4355 C.3     1  UNL1        0.0538
     25 C          66.2972   92.6437   12.7628 C.2     1  UNL1        0.0968
     26 N          67.3015   92.9171   13.8430 N.2     1  UNL1       -0.0908
     27 O          67.2556   92.1384   15.1242 O.2     1  UNL1       -0.4090
     28 H          67.8829   92.3091   15.7989 H       1  UNL1        0.3278
@<TRIPOS>BOND
     1    13    14    1
     2    14    12    1
     3    12    10    1
     4    10    11    2
     5    10     1    1
     6     1     2   ar
     7     2     3   ar
     8     3     4   ar
     9     4     5   ar
    10     5     6   ar
    11     6     7   ar
    12     7     8   ar
    13     8     9   ar
    14     9    15    1
    15    15    17    1
    16    17    18   ar
    17    18    19   ar
    18    19    20   ar
    19    20    21   ar
    20    21    22   ar
    21    21    23    1
    22    23    24    1
    23    24    25    1
    24    25    26    2
    25    26    27    1
    26     9     1   ar
    27    22    17   ar
    28     8     3   ar
    29    25    20    1
    30    15    16    1
    31    27    28    1
@<TRIPOS>MOLECULE
*****
 28 31 0 0 0
SMALL
GASTEIGER

@<TRIPOS>ATOM
      1 C          62.1641   85.7643   10.3244 C.ar    1  UNL1        0.1185
      2 S          62.8974   84.4743   10.5441 S.2     1  UNL1       -0.0777
      3 C          63.5098   84.5164   11.9127 C.ar    1  UNL1        0.0500
      4 C          64.3447   83.5265   12.6696 C.ar    1  UNL1        0.1053
      5 N          64.8247   83.8525   14.0528 N.ar    1  UNL1       -0.2418
      6 C          64.4698   85.1685   14.6791 C.ar    1  UNL1        0.0990
      7 C          63.6349   86.1584   13.9222 C.ar    1  UNL1        0.0224
      8 C          63.1549   85.8324   12.5390 C.ar    1  UNL1        0.0232
      9 C          62.3232   86.6036   11.5574 C.ar    1  UNL1        0.0613
     10 C          61.4049   86.1476    9.0888 C.2     1  UNL1        0.3485
     11 O          60.0938   86.8666    9.2070 O.2     1  UNL1       -0.2443
     12 O          61.9568   85.8120    7.7351 O.3     1  UNL1       -0.4451
     13 C          61.8229   84.1704    5.7258 C.3     1  UNL1        0.0513
     14 C          61.1411   85.0006    6.7727 C.3     1  UNL1        0.2089
     15 N          61.7512   87.9736   11.7713 N.pl3   1  UNL1       -0.3120
     16 H          60.7780   88.0920   11.8621 H       1  UNL1        0.1522
     17 C          62.6616   89.1632   11.8467 C.ar    1  UNL1        0.0480
     18 C          62.7607   90.1068   10.6848 C.ar    1  UNL1        0.0146
     19 C          63.6712   91.2965   10.7601 C.ar    1  UNL1        0.0022
     20 C          64.4826   91.5426   11.9974 C.ar    1  UNL1        0.0128
     21 C          64.3836   90.5991   13.1593 C.ar    1  UNL1       -0.0193
     22 C          63.4731   89.4095   13.0840 C.ar    1  UNL1        0.0104
     23 C          65.2985   91.0960   14.2392 C.3     1  UNL1        0.0328
     24 C          65.9630   92.3466   13.7446 C.3     1  UNL1        0.0538
     25 C          65.4587   92.6226   12.3591 C.2     1  UNL1        0.0968
     26 N          65.8601   93.7761   11.4883 N.2     1  UNL1       -0.0908
     27 O          65.2685   93.9225   10.1177 O.2     1  UNL1       -0.4090
     28 H          65.5192   94.6431    9.5737 H       1  UNL1        0.3278
@<TRIPOS>BOND
     1    13    14    1
     2    14    12    1
     3    12    10    1
     4    10    11    2
     5    10     1    1
     6     1     2   ar
     7     2     3   ar
     8     3     4   ar
     9     4     5   ar
    10     5     6   ar
    11     6     7   ar
    12     7     8   ar
    13     8     9   ar
    14     9    15    1
    15    15    17    1
    16    17    18   ar
    17    18    19   ar
    18    19    20   ar
    19    20    21   ar
    20    21    22   ar
    21    21    23    1
    22    23    24    1
    23    24    25    1
    24    25    26    2
    25    26    27    1
    26     9     1   ar
    27    22    17   ar
    28     8     3   ar
    29    25    20    1
    30    15    16    1
    31    27    28    1
@<TRIPOS>MOLECULE
*****
 28 31 0 0 0
SMALL
GASTEIGER

@<TRIPOS>ATOM
      1 C          62.3604   86.3807   11.3608 C.ar    1  UNL1        0.1185
      2 S          62.0410   85.7262   10.0495 S.2     1  UNL1       -0.0777
      3 C          61.2313   86.6910    9.2348 C.ar    1  UNL1        0.0500
      4 C          60.6355   86.5921    7.8618 C.ar    1  UNL1        0.1053
      5 N          59.8588   87.7441    7.2967 N.ar    1  UNL1       -0.2418
      6 C          59.6778   88.9949    8.1045 C.ar    1  UNL1        0.0990
      7 C          60.2736   89.0938    9.4775 C.ar    1  UNL1        0.0224
      8 C          61.0504   87.9418   10.0427 C.ar    1  UNL1        0.0232
      9 C          61.7482   87.7501   11.3566 C.ar    1  UNL1        0.0613
     10 C          63.1529   85.7727   12.4799 C.2     1  UNL1        0.3485
     11 O          63.5920   84.3409   12.3962 O.2     1  UNL1       -0.2443
     12 O          63.5062   86.5964   13.6825 O.3     1  UNL1       -0.4451
     13 C          63.8211   85.8617   16.1546 C.3     1  UNL1        0.0513
     14 C          64.3654   86.0132   14.7650 C.3     1  UNL1        0.2089
     15 N          61.8209   88.7519   12.4706 N.pl3   1  UNL1       -0.3120
     16 H          61.1267   88.7632   13.1686 H       1  UNL1        0.1522
     17 C          62.9514   89.7363   12.5214 C.ar    1  UNL1        0.0480
     18 C          63.8179   89.8212   13.7430 C.ar    1  UNL1        0.0146
     19 C          64.9484   90.8057   13.7938 C.ar    1  UNL1        0.0022
     20 C          65.2125   91.7054   12.6230 C.ar    1  UNL1        0.0128
     21 C          64.3462   91.6206   11.4015 C.ar    1  UNL1       -0.0193
     22 C          63.2156   90.6361   11.3507 C.ar    1  UNL1        0.0104
     23 C          64.8443   92.6291   10.4090 C.3     1  UNL1        0.0328
     24 C          66.0185   93.3371   11.0172 C.3     1  UNL1        0.0538
     25 C          66.2461   92.7663   12.3855 C.2     1  UNL1        0.0968
     26 N          67.3189   93.1831   13.3475 N.2     1  UNL1       -0.0908
     27 O          67.4239   92.5181   14.6880 O.2     1  UNL1       -0.4090
     28 H          68.0941   92.7785   15.2889 H       1  UNL1        0.3278
@<TRIPOS>BOND
     1    13    14    1
     2    14    12    1
     3    12    10    1
     4    10    11    2
     5    10     1    1
     6     1     2   ar
     7     2     3   ar
     8     3     4   ar
     9     4     5   ar
    10     5     6   ar
    11     6     7   ar
    12     7     8   ar
    13     8     9   ar
    14     9    15    1
    15    15    17    1
    16    17    18   ar
    17    18    19   ar
    18    19    20   ar
    19    20    21   ar
    20    21    22   ar
    21    21    23    1
    22    23    24    1
    23    24    25    1
    24    25    26    2
    25    26    27    1
    26     9     1   ar
    27    22    17   ar
    28     8     3   ar
    29    25    20    1
    30    15    16    1
    31    27    28    1
@<TRIPOS>MOLECULE
*****
 28 31 0 0 0
SMALL
GASTEIGER

@<TRIPOS>ATOM
      1 C          61.4505   88.0142   10.2303 C.ar    1  UNL1        0.1185
      2 S          61.6753   86.7043    9.5349 S.2     1  UNL1       -0.0777
      3 C          62.4054   85.7969   10.4802 C.ar    1  UNL1        0.0500
      4 C          62.8933   84.3853   10.3411 C.ar    1  UNL1        0.1053
      5 N          63.6076   83.7229   11.4817 N.ar    1  UNL1       -0.2418
      6 C          63.8340   84.4720   12.7613 C.ar    1  UNL1        0.0990
      7 C          63.3462   85.8836   12.9004 C.ar    1  UNL1        0.0224
      8 C          62.6319   86.5460   11.7599 C.ar    1  UNL1        0.0232
      9 C          62.0417   87.9164   11.6054 C.ar    1  UNL1        0.0613
     10 C          60.7565   89.2117    9.6521 C.2     1  UNL1        0.3485
     11 O          60.2120   89.1611    8.2553 O.2     1  UNL1       -0.2443
     12 O          60.6068   90.4597   10.4706 O.3     1  UNL1       -0.4451
     13 C          58.8769   89.6707   12.2412 C.3     1  UNL1        0.0513
     14 C          59.3499   90.6965   11.2542 C.3     1  UNL1        0.2089
     15 N          62.0427   88.9989   12.6437 N.pl3   1  UNL1       -0.3120
     16 H          61.2436   89.1491   13.1990 H       1  UNL1        0.1522
     17 C          63.2608   89.8526   12.8362 C.ar    1  UNL1        0.0480
     18 C          64.1626   89.6186   14.0118 C.ar    1  UNL1        0.0146
     19 C          65.3809   90.4723   14.2043 C.ar    1  UNL1        0.0022
     20 C          65.6973   91.5601   13.2211 C.ar    1  UNL1        0.0128
     21 C          64.7956   91.7941   12.0455 C.ar    1  UNL1       -0.0193
     22 C          63.5774   90.9404   11.8530 C.ar    1  UNL1        0.0104
     23 C          65.3597   92.9325   11.2480 C.3     1  UNL1        0.0328
     24 C          66.6100   93.4020   11.9308 C.3     1  UNL1        0.0538
     25 C          66.8187   92.5538   13.1503 C.2     1  UNL1        0.0968
     26 N          67.9501   92.6776   14.1273 N.2     1  UNL1       -0.0908
     27 O          68.0273   91.7537   15.3064 O.2     1  UNL1       -0.4090
     28 H          68.7341   91.8310   15.9168 H       1  UNL1        0.3278
@<TRIPOS>BOND
     1    13    14    1
     2    14    12    1
     3    12    10    1
     4    10    11    2
     5    10     1    1
     6     1     2   ar
     7     2     3   ar
     8     3     4   ar
     9     4     5   ar
    10     5     6   ar
    11     6     7   ar
    12     7     8   ar
    13     8     9   ar
    14     9    15    1
    15    15    17    1
    16    17    18   ar
    17    18    19   ar
    18    19    20   ar
    19    20    21   ar
    20    21    22   ar
    21    21    23    1
    22    23    24    1
    23    24    25    1
    24    25    26    2
    25    26    27    1
    26     9     1   ar
    27    22    17   ar
    28     8     3   ar
    29    25    20    1
    30    15    16    1
    31    27    28    1
@<TRIPOS>MOLECULE
*****
 28 31 0 0 0
SMALL
GASTEIGER

@<TRIPOS>ATOM
      1 C          63.8277   90.3726   14.0090 C.ar    1  UNL1        0.1185
      2 S          65.2490   90.7893   14.2464 S.2     1  UNL1       -0.0777
      3 C          65.6807   91.6436   13.0914 C.ar    1  UNL1        0.0500
      4 C          66.9758   92.3345   12.7831 C.ar    1  UNL1        0.1053
      5 N          67.1165   93.1367   11.5234 N.ar    1  UNL1       -0.2418
      6 C          65.9621   93.2479   10.5722 C.ar    1  UNL1        0.0990
      7 C          64.6670   92.5569   10.8805 C.ar    1  UNL1        0.0224
      8 C          64.5262   91.7548   12.1402 C.ar    1  UNL1        0.0232
      9 C          63.3811   90.9692   12.7072 C.ar    1  UNL1        0.0613
     10 C          62.9987   89.5105   14.9143 C.2     1  UNL1        0.3485
     11 O          61.5034   89.6271   14.8986 O.2     1  UNL1       -0.2443
     12 O          63.6651   88.5319   15.8352 O.3     1  UNL1       -0.4451
     13 C          62.7362   86.7933   17.5278 C.3     1  UNL1        0.0513
     14 C          63.0491   88.2150   17.1657 C.3     1  UNL1        0.2089
     15 N          62.0270   90.8086   12.0823 N.pl3   1  UNL1       -0.3120
     16 H          61.2949   91.4183   12.3304 H       1  UNL1        0.1522
     17 C          61.7883   89.7191   11.0793 C.ar    1  UNL1        0.0480
     18 C          62.7581   88.5807   10.9635 C.ar    1  UNL1        0.0146
     19 C          62.5195   87.4911    9.9605 C.ar    1  UNL1        0.0022
     20 C          61.3109   87.5400    9.0734 C.ar    1  UNL1        0.0128
     21 C          60.3411   88.6784    9.1892 C.ar    1  UNL1       -0.0193
     22 C          60.5797   89.7680   10.1922 C.ar    1  UNL1        0.0104
     23 C          59.2467   88.4588    8.1871 C.3     1  UNL1        0.0328
     24 C          59.5402   87.1846    7.4520 C.3     1  UNL1        0.0538
     25 C          60.8160   86.6168    7.9998 C.2     1  UNL1        0.0968
     26 N          61.4802   85.3484    7.5524 N.2     1  UNL1       -0.0908
     27 O          62.7600   84.9045    8.1965 O.2     1  UNL1       -0.4090
     28 H          63.1749   84.1122    7.9171 H       1  UNL1        0.3278
@<TRIPOS>BOND
     1    13    14    1
     2    14    12    1
     3    12    10    1
     4    10    11    2
     5    10     1    1
     6     1     2   ar
     7     2     3   ar
     8     3     4   ar
     9     4     5   ar
    10     5     6   ar
    11     6     7   ar
    12     7     8   ar
    13     8     9   ar
    14     9    15    1
    15    15    17    1
    16    17    18   ar
    17    18    19   ar
    18    19    20   ar
    19    20    21   ar
    20    21    22   ar
    21    21    23    1
    22    23    24    1
    23    24    25    1
    24    25    26    2
    25    26    27    1
    26     9     1   ar
    27    22    17   ar
    28     8     3   ar
    29    25    20    1
    30    15    16    1
    31    27    28    1
@<TRIPOS>MOLECULE
*****
 28 31 0 0 0
SMALL
GASTEIGER

@<TRIPOS>ATOM
      1 C          65.2589   92.3817   11.8685 C.ar    1  UNL1        0.1185
      2 S          64.7079   92.2715   10.4778 S.2     1  UNL1       -0.0777
      3 C          63.5062   91.3750   10.5249 C.ar    1  UNL1        0.0500
      4 C          62.5618   90.9055    9.4583 C.ar    1  UNL1        0.1053
      5 N          61.4257   89.9922    9.8117 N.ar    1  UNL1       -0.2418
      6 C          61.2340   89.5482   11.2316 C.ar    1  UNL1        0.0990
      7 C          62.1784   90.0177   12.2982 C.ar    1  UNL1        0.0224
      8 C          63.3145   90.9311   11.9448 C.ar    1  UNL1        0.0232
      9 C          64.3977   91.5533   12.7752 C.ar    1  UNL1        0.0613
     10 C          66.4601   93.1801   12.2803 C.2     1  UNL1        0.3485
     11 O          66.8551   94.3980   11.4989 O.2     1  UNL1       -0.2443
     12 O          67.2665   92.7606   13.4736 O.3     1  UNL1       -0.4451
     13 C          67.2747   92.8572   16.0699 C.3     1  UNL1        0.0513
     14 C          67.1944   93.5545   14.7442 C.3     1  UNL1        0.2089
     15 N          64.5866   91.3778   14.2529 N.pl3   1  UNL1       -0.3120
     16 H          64.9390   92.1197   14.7956 H       1  UNL1        0.1522
     17 C          64.2385   90.0720   14.9037 C.ar    1  UNL1        0.0480
     18 C          63.4555   90.0568   16.1831 C.ar    1  UNL1        0.0146
     19 C          63.1074   88.7510   16.8340 C.ar    1  UNL1        0.0022
     20 C          63.5423   87.4603   16.2054 C.ar    1  UNL1        0.0128
     21 C          64.3253   87.4755   14.9261 C.ar    1  UNL1       -0.0193
     22 C          64.6734   88.7813   14.2753 C.ar    1  UNL1        0.0104
     23 C          64.6149   86.0544   14.5431 C.3     1  UNL1        0.0328
     24 C          64.0109   85.1610   15.5857 C.3     1  UNL1        0.0538
     25 C          63.3480   86.0299   16.6131 C.2     1  UNL1        0.0968
     26 N          62.6188   85.5523   17.8338 N.2     1  UNL1       -0.0908
     27 O          62.0033   86.5441   18.7759 O.2     1  UNL1       -0.4090
     28 H          61.5478   86.2457   19.5384 H       1  UNL1        0.3278
@<TRIPOS>BOND
     1    13    14    1
     2    14    12    1
     3    12    10    1
     4    10    11    2
     5    10     1    1
     6     1     2   ar
     7     2     3   ar
     8     3     4   ar
     9     4     5   ar
    10     5     6   ar
    11     6     7   ar
    12     7     8   ar
    13     8     9   ar
    14     9    15    1
    15    15    17    1
    16    17    18   ar
    17    18    19   ar
    18    19    20   ar
    19    20    21   ar
    20    21    22   ar
    21    21    23    1
    22    23    24    1
    23    24    25    1
    24    25    26    2
    25    26    27    1
    26     9     1   ar
    27    22    17   ar
    28     8     3   ar
    29    25    20    1
    30    15    16    1
    31    27    28    1
