@<TRIPOS>MOLECULE
*****
 24 27 0 0 0
SMALL
GASTEIGER

@<TRIPOS>ATOM
      1 C          63.2128   84.7397   12.8193 C.3     1  UNL1        0.0409
      2 C          63.3628   83.2582   12.9995 C.3     1  UNL1        0.0707
      3 N          64.1540   82.7195   14.1544 N.3     1  UNL1       -0.2974
      4 C          64.7951   83.6624   15.1291 C.3     1  UNL1        0.0689
      5 C          64.6450   85.1439   14.9488 C.3     1  UNL1        0.0212
      6 C          63.8539   85.6826   13.7939 C.3     1  UNL1        0.0234
      7 C          63.0627   86.2213   12.6390 C.3     1  UNL1        0.0078
      8 H          64.9027   82.1510   13.7587 H       1  UNL1        0.1232
      9 C          63.5704   84.2829   13.3353 C.ar    1  UNL1       -0.0218
     10 C          64.4025   83.6661   12.2502 C.ar    1  UNL1       -0.0034
     11 C          64.1190   82.2664   11.7916 C.ar    1  UNL1        0.0119
     12 C          63.0034   81.4834   12.4180 C.ar    1  UNL1        0.0682
     13 CL         62.7200   80.0836   11.9593 Cl      1  UNL1       -0.0814
     14 C          62.1714   82.1000   13.5030 C.ar    1  UNL1        0.0679
     15 CL         61.0558   81.3170   14.1294 Cl      1  UNL1       -0.0814
     16 C          62.4548   83.4998   13.9617 C.ar    1  UNL1        0.0080
     17 C          62.3858   84.5064   11.5898 C.3     1  UNL1        0.1303
     18 C          59.9030   88.9456   10.1723 C.3     1  UNL1        0.0756
     19 C          60.7561   87.7127   10.1305 C.ar    1  UNL1        0.1604
     20 N          61.5354   87.2195    8.9475 N.ar    1  UNL1       -0.2146
     21 C          62.2408   85.9583    9.3501 C.ar    1  UNL1        0.1379
     22 C          63.1328   85.1291    8.4747 C.3     1  UNL1        0.0734
     23 N          61.8974   85.6721   10.7820 N.ar    1  UNL1       -0.2366
     24 N          60.9799   86.7563   11.2643 N.ar    1  UNL1       -0.1534
@<TRIPOS>BOND
     1    18    19    1
     2    19    20   ar
     3    20    21   ar
     4    21    22    1
     5    21    23   ar
     6    23    17    1
     7    17     1    1
     8     1     2    1
     9     2     3    1
    10     3     4    1
    11     4     5    1
    12     5     6    1
    13     6     9    1
    14     9    10   ar
    15    10    11   ar
    16    11    12   ar
    17    12    13    1
    18    12    14   ar
    19    14    15    1
    20    14    16   ar
    21     6     7    1
    22    23    24   ar
    23    24    19   ar
    24     6     1    1
    25    16     9   ar
    26     7     1    1
    27     3     8    1
@<TRIPOS>MOLECULE
*****
 24 27 0 0 0
SMALL
GASTEIGER

@<TRIPOS>ATOM
      1 C          62.8763   84.4905   11.4649 C.3     1  UNL1        0.0409
      2 C          63.1084   84.0861   12.8905 C.3     1  UNL1        0.0707
      3 N          64.0582   82.9695   13.2082 N.3     1  UNL1       -0.2974
      4 C          64.7759   82.2572   12.1003 C.3     1  UNL1        0.0689
      5 C          64.5437   82.6615   10.6746 C.3     1  UNL1        0.0212
      6 C          63.5939   83.7782   10.3569 C.3     1  UNL1        0.0234
      7 C          62.6441   84.8948   10.0391 C.3     1  UNL1        0.0078
      8 H          63.5239   82.2635   13.7146 H       1  UNL1        0.1232
      9 C          63.3137   83.9559   11.8197 C.ar    1  UNL1       -0.0218
     10 C          62.3216   83.0651   12.5070 C.ar    1  UNL1       -0.0034
     11 C          62.0414   83.2429   13.9698 C.ar    1  UNL1        0.0119
     12 C          62.7531   84.3115   14.7453 C.ar    1  UNL1        0.0682
     13 CL         62.4728   84.4892   16.2082 Cl      1  UNL1       -0.0814
     14 C          63.7451   85.2023   14.0581 C.ar    1  UNL1        0.0679
     15 CL         64.4568   86.2709   14.8337 Cl      1  UNL1       -0.0814
     16 C          64.0254   85.0246   12.5952 C.ar    1  UNL1        0.0080
     17 C          61.9136   85.5464   11.9211 C.3     1  UNL1        0.1303
     18 C          59.7277   88.3993    8.0529 C.3     1  UNL1        0.0756
     19 C          60.5612   87.9991    9.2339 C.ar    1  UNL1        0.1604
     20 N          61.5011   88.8891    9.9919 N.ar    1  UNL1       -0.2146
     21 C          62.1221   88.0787   11.0909 C.ar    1  UNL1        0.1379
     22 C          63.1233   88.5724   12.0927 C.3     1  UNL1        0.0734
     23 N          61.5660   86.6877   11.0120 N.ar    1  UNL1       -0.2366
     24 N          60.6014   86.6386    9.8643 N.ar    1  UNL1       -0.1534
@<TRIPOS>BOND
     1    18    19    1
     2    19    20   ar
     3    20    21   ar
     4    21    22    1
     5    21    23   ar
     6    23    17    1
     7    17     1    1
     8     1     2    1
     9     2     3    1
    10     3     4    1
    11     4     5    1
    12     5     6    1
    13     6     9    1
    14     9    10   ar
    15    10    11   ar
    16    11    12   ar
    17    12    13    1
    18    12    14   ar
    19    14    15    1
    20    14    16   ar
    21     6     7    1
    22    23    24   ar
    23    24    19   ar
    24     6     1    1
    25    16     9   ar
    26     7     1    1
    27     3     8    1
@<TRIPOS>MOLECULE
*****
 24 27 0 0 0
SMALL
GASTEIGER

@<TRIPOS>ATOM
      1 C          62.0881   87.3883   11.1611 C.3     1  UNL1        0.0409
      2 C          61.1742   87.6086    9.9923 C.3     1  UNL1        0.0707
      3 N          61.1178   88.9518    9.3272 N.3     1  UNL1       -0.2974
      4 C          61.9753   90.0748    9.8309 C.3     1  UNL1        0.0689
      5 C          62.8891   89.8545   10.9997 C.3     1  UNL1        0.0212
      6 C          62.9456   88.5112   11.6649 C.3     1  UNL1        0.0234
      7 C          63.0020   87.1679   12.3300 C.3     1  UNL1        0.0078
      8 H          60.1506   89.2700    9.3876 H       1  UNL1        0.1232
      9 C          61.9229   87.9901   10.6992 C.ar    1  UNL1       -0.0218
     10 C          60.4760   88.3449   10.8750 C.ar    1  UNL1       -0.0034
     11 C          59.4534   87.8238    9.9093 C.ar    1  UNL1        0.0119
     12 C          59.8775   86.9479    8.7678 C.ar    1  UNL1        0.0682
     13 CL         58.8547   86.4268    7.8021 Cl      1  UNL1       -0.0814
     14 C          61.3242   86.5931    8.5920 C.ar    1  UNL1        0.0679
     15 CL         61.7483   85.7173    7.4505 Cl      1  UNL1       -0.0814
     16 C          62.3470   87.1143    9.5577 C.ar    1  UNL1        0.0080
     17 C          61.6256   85.9644   11.2543 C.3     1  UNL1        0.1303
     18 C          63.7573   83.1576   15.1860 C.3     1  UNL1        0.0756
     19 C          63.4231   83.6680   13.8158 C.ar    1  UNL1        0.1604
     20 N          63.9800   83.1511   12.5224 N.ar    1  UNL1       -0.2146
     21 C          63.3745   83.9485   11.4054 C.ar    1  UNL1        0.1379
     22 C          63.6514   83.7679    9.9424 C.3     1  UNL1        0.0734
     23 N          62.4433   84.9581   12.0085 N.ar    1  UNL1       -0.2366
     24 N          62.4734   84.7847   13.4981 N.ar    1  UNL1       -0.1534
@<TRIPOS>BOND
     1    18    19    1
     2    19    20   ar
     3    20    21   ar
     4    21    22    1
     5    21    23   ar
     6    23    17    1
     7    17     1    1
     8     1     2    1
     9     2     3    1
    10     3     4    1
    11     4     5    1
    12     5     6    1
    13     6     9    1
    14     9    10   ar
    15    10    11   ar
    16    11    12   ar
    17    12    13    1
    18    12    14   ar
    19    14    15    1
    20    14    16   ar
    21     6     7    1
    22    23    24   ar
    23    24    19   ar
    24     6     1    1
    25    16     9   ar
    26     7     1    1
    27     3     8    1
@<TRIPOS>MOLECULE
*****
 24 27 0 0 0
SMALL
GASTEIGER

@<TRIPOS>ATOM
      1 C          65.9321   92.1717   14.6196 C.3     1  UNL1        0.0409
      2 C          66.9307   92.4761   13.5425 C.3     1  UNL1        0.0707
      3 N          68.2772   93.0300   13.9032 N.3     1  UNL1       -0.2974
      4 C          68.6251   93.2795   15.3408 C.3     1  UNL1        0.0689
      5 C          67.6264   92.9751   16.4178 C.3     1  UNL1        0.0212
      6 C          66.2799   92.4212   16.0572 C.3     1  UNL1        0.0234
      7 C          64.9334   91.8672   15.6966 C.3     1  UNL1        0.0078
      8 H          68.3674   93.9233   13.4191 H       1  UNL1        0.1232
      9 C          66.6557   92.4529   14.6054 C.ar    1  UNL1       -0.0218
     10 C          67.5598   91.3971   14.0414 C.ar    1  UNL1       -0.0034
     11 C          67.9356   91.4289   12.5896 C.ar    1  UNL1        0.0119
     12 C          67.4073   92.5163   11.7017 C.ar    1  UNL1        0.0682
     13 CL         67.7831   92.5480   10.2499 Cl      1  UNL1       -0.0814
     14 C          66.5032   93.5721   12.2656 C.ar    1  UNL1        0.0679
     15 CL         65.9749   94.6595   11.3778 Cl      1  UNL1       -0.0814
     16 C          66.1274   93.5404   13.7175 C.ar    1  UNL1        0.0080
     17 C          64.9539   91.7078   13.5814 C.3     1  UNL1        0.1303
     18 C          64.3229   86.6239   14.8607 C.3     1  UNL1        0.0756
     19 C          64.1898   87.9479   14.1683 C.ar    1  UNL1        0.1604
     20 N          63.3108   88.2416   12.9889 N.ar    1  UNL1       -0.2146
     21 C          63.4900   89.6858   12.6254 C.ar    1  UNL1        0.1379
     22 C          62.8005   90.4049   11.5041 C.3     1  UNL1        0.0734
     23 N          64.4798   90.2847   13.5803 N.ar    1  UNL1       -0.2366
     24 N          64.9123   89.2106   14.5338 N.ar    1  UNL1       -0.1534
@<TRIPOS>BOND
     1    18    19    1
     2    19    20   ar
     3    20    21   ar
     4    21    22    1
     5    21    23   ar
     6    23    17    1
     7    17     1    1
     8     1     2    1
     9     2     3    1
    10     3     4    1
    11     4     5    1
    12     5     6    1
    13     6     9    1
    14     9    10   ar
    15    10    11   ar
    16    11    12   ar
    17    12    13    1
    18    12    14   ar
    19    14    15    1
    20    14    16   ar
    21     6     7    1
    22    23    24   ar
    23    24    19   ar
    24     6     1    1
    25    16     9   ar
    26     7     1    1
    27     3     8    1
@<TRIPOS>MOLECULE
*****
 24 27 0 0 0
SMALL
GASTEIGER

@<TRIPOS>ATOM
      1 C          63.2939   83.1234   12.1667 C.3     1  UNL1        0.0409
      2 C          63.3517   83.4590   13.6275 C.3     1  UNL1        0.0707
      3 N          63.0567   82.4036   14.6517 N.3     1  UNL1       -0.2974
      4 C          62.7037   81.0126   14.2151 C.3     1  UNL1        0.0689
      5 C          62.6459   80.6770   12.7543 C.3     1  UNL1        0.0212
      6 C          62.9410   81.7325   11.7301 C.3     1  UNL1        0.0234
      7 C          63.2361   82.7879   10.7058 C.3     1  UNL1        0.0078
      8 H          62.2735   82.7449   15.2090 H       1  UNL1        0.1232
      9 C          63.1781   82.7292   12.8256 C.ar    1  UNL1       -0.0218
     10 C          62.0248   83.2401   13.6374 C.ar    1  UNL1       -0.0034
     11 C          62.2619   84.2368   14.7329 C.ar    1  UNL1        0.0119
     12 C          63.6524   84.7228   15.0167 C.ar    1  UNL1        0.0682
     13 CL         63.8895   85.7197   16.1122 Cl      1  UNL1       -0.0814
     14 C          64.8057   84.2121   14.2049 C.ar    1  UNL1        0.0679
     15 CL         66.1961   84.6981   14.4887 Cl      1  UNL1       -0.0814
     16 C          64.5686   83.2152   13.1093 C.ar    1  UNL1        0.0080
     17 C          63.6680   84.5358   11.8275 C.3     1  UNL1        0.1303
     18 C          59.7714   88.0381   11.1713 C.3     1  UNL1        0.0756
     19 C          60.8693   87.0561   10.8887 C.ar    1  UNL1        0.1604
     20 N          61.3505   86.6382    9.5308 N.ar    1  UNL1       -0.2146
     21 C          62.4575   85.6432    9.7171 C.ar    1  UNL1        0.1379
     22 C          63.2264   84.9645    8.6227 C.3     1  UNL1        0.0734
     23 N          62.6604   85.4462   11.1903 N.ar    1  UNL1       -0.2366
     24 N          61.6789   86.3194   11.9143 N.ar    1  UNL1       -0.1534
@<TRIPOS>BOND
     1    18    19    1
     2    19    20   ar
     3    20    21   ar
     4    21    22    1
     5    21    23   ar
     6    23    17    1
     7    17     1    1
     8     1     2    1
     9     2     3    1
    10     3     4    1
    11     4     5    1
    12     5     6    1
    13     6     9    1
    14     9    10   ar
    15    10    11   ar
    16    11    12   ar
    17    12    13    1
    18    12    14   ar
    19    14    15    1
    20    14    16   ar
    21     6     7    1
    22    23    24   ar
    23    24    19   ar
    24     6     1    1
    25    16     9   ar
    26     7     1    1
    27     3     8    1
@<TRIPOS>MOLECULE
*****
 24 27 0 0 0
SMALL
GASTEIGER

@<TRIPOS>ATOM
      1 C          62.9113   84.4664   11.3433 C.3     1  UNL1        0.0409
      2 C          63.1062   84.0558   12.7728 C.3     1  UNL1        0.0707
      3 N          64.0868   82.9736   13.1152 N.3     1  UNL1       -0.2974
      4 C          64.8725   82.3020   12.0282 C.3     1  UNL1        0.0689
      5 C          64.6776   82.7126   10.5987 C.3     1  UNL1        0.0212
      6 C          63.6970   83.7948   10.2563 C.3     1  UNL1        0.0234
      7 C          62.7164   84.8770    9.9138 C.3     1  UNL1        0.0078
      8 H          63.5622   82.2418   13.5945 H       1  UNL1        0.1232
      9 C          63.3559   83.9455   11.7092 C.ar    1  UNL1       -0.0218
     10 C          62.3132   83.0638   12.3302 C.ar    1  UNL1       -0.0034
     11 C          61.9722   83.2145   13.7831 C.ar    1  UNL1        0.0119
     12 C          62.6737   84.2468   14.6150 C.ar    1  UNL1        0.0682
     13 CL         62.3326   84.3974   16.0680 Cl      1  UNL1       -0.0814
     14 C          63.7164   85.1284   13.9941 C.ar    1  UNL1        0.0679
     15 CL         64.4179   86.1607   14.8261 Cl      1  UNL1       -0.0814
     16 C          64.0575   84.9777   12.5411 C.ar    1  UNL1        0.0080
     17 C          61.8916   85.4789   11.7732 C.3     1  UNL1        0.1303
     18 C          63.1796   90.5646   11.1756 C.3     1  UNL1        0.0756
     19 C          62.5500   89.2189   10.9701 C.ar    1  UNL1        0.1604
     20 N          61.5701   88.8592    9.8928 N.ar    1  UNL1       -0.2146
     21 C          61.2041   87.4145   10.0625 C.ar    1  UNL1        0.1379
     22 C          60.2517   86.6392    9.2014 C.3     1  UNL1        0.0734
     23 N          61.9579   86.8812   11.2447 N.ar    1  UNL1       -0.2366
     24 N          62.7897   87.9963   11.8055 N.ar    1  UNL1       -0.1534
@<TRIPOS>BOND
     1    18    19    1
     2    19    20   ar
     3    20    21   ar
     4    21    22    1
     5    21    23   ar
     6    23    17    1
     7    17     1    1
     8     1     2    1
     9     2     3    1
    10     3     4    1
    11     4     5    1
    12     5     6    1
    13     6     9    1
    14     9    10   ar
    15    10    11   ar
    16    11    12   ar
    17    12    13    1
    18    12    14   ar
    19    14    15    1
    20    14    16   ar
    21     6     7    1
    22    23    24   ar
    23    24    19   ar
    24     6     1    1
    25    16     9   ar
    26     7     1    1
    27     3     8    1
@<TRIPOS>MOLECULE
*****
 24 27 0 0 0
SMALL
GASTEIGER

@<TRIPOS>ATOM
      1 C          63.2519   83.0485   12.1054 C.3     1  UNL1        0.0409
      2 C          63.4720   83.3835   13.5508 C.3     1  UNL1        0.0707
      3 N          63.2215   82.3484   14.6071 N.3     1  UNL1       -0.2974
      4 C          62.7509   80.9783   14.2180 C.3     1  UNL1        0.0689
      5 C          62.5308   80.6433   12.7726 C.3     1  UNL1        0.0212
      6 C          62.7813   81.6784   11.7163 C.3     1  UNL1        0.0234
      7 C          63.0318   82.7135   10.6599 C.3     1  UNL1        0.0078
      8 H          62.5172   82.7340   15.2361 H       1  UNL1        0.1232
      9 C          63.1800   82.6628   12.7755 C.ar    1  UNL1       -0.0218
     10 C          64.6251   83.0191   12.9624 C.ar    1  UNL1       -0.0034
     11 C          65.0238   84.0036   14.0216 C.ar    1  UNL1        0.0119
     12 C          63.9776   84.6316   14.8939 C.ar    1  UNL1        0.0682
     13 CL         64.3764   85.6161   15.9531 Cl      1  UNL1       -0.0814
     14 C          62.5326   84.2753   14.7070 C.ar    1  UNL1        0.0679
     15 CL         61.4863   84.9034   15.5792 Cl      1  UNL1       -0.0814
     16 C          62.1338   83.2909   13.6477 C.ar    1  UNL1        0.0080
     17 C          63.6681   84.4371   11.7202 C.3     1  UNL1        0.1303
     18 C          59.8017   87.9951   11.1997 C.3     1  UNL1        0.0756
     19 C          60.8914   87.0155   10.8794 C.ar    1  UNL1        0.1604
     20 N          61.3696   86.6465    9.5064 N.ar    1  UNL1       -0.2146
     21 C          62.4681   85.6357    9.6542 C.ar    1  UNL1        0.1379
     22 C          63.2318   84.9935    8.5343 C.3     1  UNL1        0.0734
     23 N          62.6686   85.3800   11.1186 N.ar    1  UNL1       -0.2366
     24 N          61.6942   86.2327   11.8758 N.ar    1  UNL1       -0.1534
@<TRIPOS>BOND
     1    18    19    1
     2    19    20   ar
     3    20    21   ar
     4    21    22    1
     5    21    23   ar
     6    23    17    1
     7    17     1    1
     8     1     2    1
     9     2     3    1
    10     3     4    1
    11     4     5    1
    12     5     6    1
    13     6     9    1
    14     9    10   ar
    15    10    11   ar
    16    11    12   ar
    17    12    13    1
    18    12    14   ar
    19    14    15    1
    20    14    16   ar
    21     6     7    1
    22    23    24   ar
    23    24    19   ar
    24     6     1    1
    25    16     9   ar
    26     7     1    1
    27     3     8    1
@<TRIPOS>MOLECULE
*****
 24 27 0 0 0
SMALL
GASTEIGER

@<TRIPOS>ATOM
      1 C          63.6671   90.6588   12.9834 C.3     1  UNL1        0.0409
      2 C          64.0008   90.1577   14.3573 C.3     1  UNL1        0.0707
      3 N          65.2993   90.5435   15.0014 N.3     1  UNL1       -0.2974
      4 C          66.2641   91.4305   14.2717 C.3     1  UNL1        0.0689
      5 C          65.9304   91.9316   12.8979 C.3     1  UNL1        0.0212
      6 C          64.6319   91.5458   12.2537 C.3     1  UNL1        0.0234
      7 C          63.3333   91.1599   11.6095 C.3     1  UNL1        0.0078
      8 H          65.7949   89.6762   15.2076 H       1  UNL1        0.1232
      9 C          64.2676   90.7444   13.4682 C.ar    1  UNL1       -0.0218
     10 C          63.6455   91.4204   14.6540 C.ar    1  UNL1       -0.0034
     11 C          63.2812   90.6190   15.8685 C.ar    1  UNL1        0.0119
     12 C          63.5389   89.1416   15.8972 C.ar    1  UNL1        0.0682
     13 CL         63.1746   88.3402   17.1118 Cl      1  UNL1       -0.0814
     14 C          64.1610   88.4656   14.7115 C.ar    1  UNL1        0.0679
     15 CL         64.4188   86.9882   14.7403 Cl      1  UNL1       -0.0814
     16 C          64.5254   89.2670   13.4970 C.ar    1  UNL1        0.0080
     17 C          62.3604   89.9239   13.0328 C.3     1  UNL1        0.1303
     18 C          62.0323   86.4867    9.0380 C.3     1  UNL1        0.0756
     19 C          61.7186   87.6050    9.9871 C.ar    1  UNL1        0.1604
     20 N          60.5088   88.4905    9.9372 N.ar    1  UNL1       -0.2146
     21 C          60.6020   89.4670   11.0721 C.ar    1  UNL1        0.1379
     22 C          59.6033   90.5375   11.3983 C.3     1  UNL1        0.0734
     23 N          61.8694   89.1849   11.8233 N.ar    1  UNL1       -0.2366
     24 N          62.5594   88.0342   11.1528 N.ar    1  UNL1       -0.1534
@<TRIPOS>BOND
     1    18    19    1
     2    19    20   ar
     3    20    21   ar
     4    21    22    1
     5    21    23   ar
     6    23    17    1
     7    17     1    1
     8     1     2    1
     9     2     3    1
    10     3     4    1
    11     4     5    1
    12     5     6    1
    13     6     9    1
    14     9    10   ar
    15    10    11   ar
    16    11    12   ar
    17    12    13    1
    18    12    14   ar
    19    14    15    1
    20    14    16   ar
    21     6     7    1
    22    23    24   ar
    23    24    19   ar
    24     6     1    1
    25    16     9   ar
    26     7     1    1
    27     3     8    1
@<TRIPOS>MOLECULE
*****
 24 27 0 0 0
SMALL
GASTEIGER

@<TRIPOS>ATOM
      1 C          63.3413   82.8623   12.0651 C.3     1  UNL1        0.0409
      2 C          63.3951   83.3715   13.4750 C.3     1  UNL1        0.0707
      3 N          63.1634   82.4320   14.6211 N.3     1  UNL1       -0.2974
      4 C          62.8779   80.9832   14.3573 C.3     1  UNL1        0.0689
      5 C          62.8241   80.4740   12.9474 C.3     1  UNL1        0.0212
      6 C          63.0558   81.4135   11.8014 C.3     1  UNL1        0.0234
      7 C          63.2875   82.3530   10.6552 C.3     1  UNL1        0.0078
      8 H          62.3689   82.7979   15.1458 H       1  UNL1        0.1232
      9 C          63.2517   82.5439   12.7676 C.ar    1  UNL1       -0.0218
     10 C          62.0628   83.2027   13.4023 C.ar    1  UNL1       -0.0034
     11 C          62.2587   84.3331   14.3685 C.ar    1  UNL1        0.0119
     12 C          63.6434   84.8048   14.7002 C.ar    1  UNL1        0.0682
     13 CL         63.8392   85.9353   15.6666 Cl      1  UNL1       -0.0814
     14 C          64.8322   84.1461   14.0657 C.ar    1  UNL1        0.0679
     15 CL         66.2170   84.6178   14.3974 Cl      1  UNL1       -0.0814
     16 C          64.6364   83.0156   13.0993 C.ar    1  UNL1        0.0080
     17 C          63.6399   84.2411   11.5557 C.3     1  UNL1        0.1303
     18 C          62.5511   84.8566    6.4257 C.3     1  UNL1        0.0756
     19 C          62.5188   85.0016    7.9183 C.ar    1  UNL1        0.1604
     20 N          61.6098   85.9058    8.6968 N.ar    1  UNL1       -0.2146
     21 C          61.9190   85.7310   10.1542 C.ar    1  UNL1        0.1379
     22 C          61.2463   86.4433   11.2898 C.3     1  UNL1        0.0734
     23 N          63.0193   84.7187   10.2763 N.ar    1  UNL1       -0.2366
     24 N          63.3900   84.2680    8.8945 N.ar    1  UNL1       -0.1534
@<TRIPOS>BOND
     1    18    19    1
     2    19    20   ar
     3    20    21   ar
     4    21    22    1
     5    21    23   ar
     6    23    17    1
     7    17     1    1
     8     1     2    1
     9     2     3    1
    10     3     4    1
    11     4     5    1
    12     5     6    1
    13     6     9    1
    14     9    10   ar
    15    10    11   ar
    16    11    12   ar
    17    12    13    1
    18    12    14   ar
    19    14    15    1
    20    14    16   ar
    21     6     7    1
    22    23    24   ar
    23    24    19   ar
    24     6     1    1
    25    16     9   ar
    26     7     1    1
    27     3     8    1
