@<TRIPOS>MOLECULE
*****
 33 36 0 0 0
SMALL
GASTEIGER

@<TRIPOS>ATOM
      1 C          63.8310   89.0202   13.5873 C.2     1  UNL1        0.2335
      2 O          64.5752   89.3809   14.8388 O.2     1  UNL1       -0.2742
      3 N          63.6804   87.5808   13.1927 N.am    1  UNL1       -0.2755
      4 C          62.9363   87.2201   11.9413 C.3     1  UNL1        0.1148
      5 C          62.7856   85.7808   11.5468 C.3     1  UNL1        0.1124
      6 N          63.3791   84.7022   12.4037 N.pl3   1  UNL1       -0.3029
      7 C          64.1233   85.0629   13.6552 C.3     1  UNL1        0.1124
      8 C          64.2739   86.5022   14.0497 C.3     1  UNL1        0.1148
      9 C          63.2285   83.2629   12.0091 C.ar    1  UNL1        0.0674
     10 C          63.6528   82.8113   10.6431 C.ar    1  UNL1        0.0176
     11 C          63.5022   81.3720   10.2486 C.ar    1  UNL1        0.0244
     12 C          62.9272   80.3842   11.2201 C.ar    1  UNL1        0.1527
     13 N          62.5029   80.8358   12.5861 N.ar    1  UNL1       -0.2386
     14 C          62.6535   82.2751   12.9807 C.ar    1  UNL1        0.1132
     15 C          62.7766   78.9449   10.8255 C.3     1  UNL1        0.4348
     16 F          62.6260   77.5056   10.4310 F       1  UNL1       -0.1644
     17 F          62.4329   78.5925   12.2424 F       1  UNL1       -0.1644
     18 F          63.1204   79.2973    9.4086 F       1  UNL1       -0.1644
     19 C          63.2375   90.0988   12.7304 C.3     1  UNL1        0.1226
     20 C          65.8231   93.4672   11.2408 C.ar    1  UNL1        0.0684
     21 C          65.8532   93.0832   12.6905 C.ar    1  UNL1        0.0100
     22 C          64.9913   91.9604   13.1870 C.ar    1  UNL1       -0.0028
     23 C          64.0994   91.2216   12.2338 C.ar    1  UNL1       -0.0097
     24 C          64.0693   91.6056   10.7842 C.ar    1  UNL1       -0.0028
     25 C          64.9312   92.7283   10.2877 C.ar    1  UNL1        0.0100
     26 N          67.5469   95.7127   10.2478 N.1     1  UNL1       -0.1908
     27 C          66.6850   94.5899   10.7443 C.1     1  UNL1        0.1004
     28 C          61.7822   90.0546   12.3700 C.ar    1  UNL1        0.0094
     29 C          61.3305   90.5148   11.0156 C.ar    1  UNL1       -0.0004
     30 C          59.8752   90.4707   10.6552 C.ar    1  UNL1        0.0204
     31 C          58.8714   89.9663   11.6492 C.ar    1  UNL1        0.0989
     32 N          59.3229   89.5060   13.0035 N.ar    1  UNL1       -0.2426
     33 C          60.7784   89.5502   13.3639 C.ar    1  UNL1        0.0954
@<TRIPOS>BOND
     1    26    27    3
     2    27    20    1
     3    20    21   ar
     4    21    22   ar
     5    22    23   ar
     6    23    19    1
     7    19     1    1
     8     1     2    2
     9     1     3   am
    10     3     4    1
    11     4     5    1
    12     5     6    1
    13     6     9    1
    14     9    10   ar
    15    10    11   ar
    16    11    12   ar
    17    12    15    1
    18    15    16    1
    19    15    17    1
    20    15    18    1
    21    12    13   ar
    22    13    14   ar
    23     6     7    1
    24     7     8    1
    25    19    28    1
    26    28    29   ar
    27    29    30   ar
    28    30    31   ar
    29    31    32   ar
    30    32    33   ar
    31    23    24   ar
    32    24    25   ar
    33    25    20   ar
    34     8     3    1
    35    33    28   ar
    36    14     9   ar
@<TRIPOS>MOLECULE
*****
 33 36 0 0 0
SMALL
GASTEIGER

@<TRIPOS>ATOM
      1 C          63.6991   88.6460   15.3141 C.2     1  UNL1        0.2335
      2 O          63.5965   88.7956   16.8032 O.2     1  UNL1       -0.2742
      3 N          63.5653   87.2906   14.6855 N.am    1  UNL1       -0.2755
      4 C          63.6679   87.1410   13.1966 C.3     1  UNL1        0.1148
      5 C          63.5341   85.7857   12.5680 C.3     1  UNL1        0.1124
      6 N          63.2977   84.5799   13.4284 N.pl3   1  UNL1       -0.3029
      7 C          63.1951   84.7295   14.9174 C.3     1  UNL1        0.1124
      8 C          63.3289   86.0849   15.5460 C.3     1  UNL1        0.1148
      9 C          63.1638   83.2246   12.7998 C.ar    1  UNL1        0.0674
     10 C          63.5294   83.0268   11.3586 C.ar    1  UNL1        0.0176
     11 C          63.3956   81.6715   10.7300 C.ar    1  UNL1        0.0244
     12 C          62.8962   80.5139   11.5427 C.ar    1  UNL1        0.1527
     13 N          62.5305   80.7116   12.9840 N.ar    1  UNL1       -0.2386
     14 C          62.6644   82.0669   13.6125 C.ar    1  UNL1        0.1132
     15 C          62.7624   79.1585   10.9141 C.3     1  UNL1        0.4348
     16 F          62.6285   77.8032   10.2855 F       1  UNL1       -0.1644
     17 F          62.5430   78.5521   12.2684 F       1  UNL1       -0.1644
     18 F          62.9817   79.7650    9.5598 F       1  UNL1       -0.1644
     19 C          63.9355   89.8517   14.4537 C.3     1  UNL1        0.1226
     20 C          67.1967   92.7664   15.5117 C.ar    1  UNL1        0.0684
     21 C          65.9174   92.7557   16.2948 C.ar    1  UNL1        0.0100
     22 C          64.8303   91.7841   15.9421 C.ar    1  UNL1       -0.0028
     23 C          65.0226   90.8233   14.8064 C.ar    1  UNL1       -0.0097
     24 C          66.3019   90.8340   14.0234 C.ar    1  UNL1       -0.0028
     25 C          67.3890   91.8056   14.3761 C.ar    1  UNL1        0.0100
     26 N          69.3708   94.7095   16.2171 N.1     1  UNL1       -0.1908
     27 C          68.2838   93.7380   15.8644 C.1     1  UNL1        0.1004
     28 C          63.0849   90.0859   13.2407 C.ar    1  UNL1        0.0094
     29 C          63.6749   90.7378   12.0254 C.ar    1  UNL1       -0.0004
     30 C          62.8243   90.9720   10.8123 C.ar    1  UNL1        0.0204
     31 C          61.3836   90.5542   10.8145 C.ar    1  UNL1        0.0989
     32 N          60.7936   89.9023   12.0297 N.ar    1  UNL1       -0.2426
     33 C          61.6443   89.6681   13.2429 C.ar    1  UNL1        0.0954
@<TRIPOS>BOND
     1    26    27    3
     2    27    20    1
     3    20    21   ar
     4    21    22   ar
     5    22    23   ar
     6    23    19    1
     7    19     1    1
     8     1     2    2
     9     1     3   am
    10     3     4    1
    11     4     5    1
    12     5     6    1
    13     6     9    1
    14     9    10   ar
    15    10    11   ar
    16    11    12   ar
    17    12    15    1
    18    15    16    1
    19    15    17    1
    20    15    18    1
    21    12    13   ar
    22    13    14   ar
    23     6     7    1
    24     7     8    1
    25    19    28    1
    26    28    29   ar
    27    29    30   ar
    28    30    31   ar
    29    31    32   ar
    30    32    33   ar
    31    23    24   ar
    32    24    25   ar
    33    25    20   ar
    34     8     3    1
    35    33    28   ar
    36    14     9   ar
@<TRIPOS>MOLECULE
*****
 33 36 0 0 0
SMALL
GASTEIGER

@<TRIPOS>ATOM
      1 C          64.1275   89.7766   13.4641 C.2     1  UNL1        0.2335
      2 O          64.8246   90.3977   14.6382 O.2     1  UNL1       -0.2742
      3 N          63.9148   88.2925   13.4173 N.am    1  UNL1       -0.2755
      4 C          63.2177   87.6714   12.2433 C.3     1  UNL1        0.1148
      5 C          63.0050   86.1873   12.1965 C.3     1  UNL1        0.1124
      6 N          63.4894   85.3243   13.3237 N.pl3   1  UNL1       -0.3029
      7 C          64.1865   85.9454   14.4977 C.3     1  UNL1        0.1124
      8 C          64.3992   87.4295   14.5445 C.3     1  UNL1        0.1148
      9 C          63.2767   83.8402   13.2768 C.ar    1  UNL1        0.0674
     10 C          62.9457   83.1706   11.9761 C.ar    1  UNL1        0.0176
     11 C          62.7330   81.6865   11.9292 C.ar    1  UNL1        0.0244
     12 C          62.8513   80.8720   13.1832 C.ar    1  UNL1        0.1527
     13 N          63.1824   81.5415   14.4841 N.ar    1  UNL1       -0.2386
     14 C          63.3951   83.0256   14.5309 C.ar    1  UNL1        0.1132
     15 C          62.6386   79.3879   13.1364 C.3     1  UNL1        0.4348
     16 F          62.4259   77.9038   13.0895 F       1  UNL1       -0.1644
     17 F          62.6272   79.4368   11.6372 F       1  UNL1       -0.1644
     18 F          62.6500   79.3389   14.6355 F       1  UNL1       -0.1644
     19 C          63.6431   90.6396   12.3370 C.3     1  UNL1        0.1226
     20 C          66.0340   94.2344   11.0676 C.ar    1  UNL1        0.0684
     21 C          66.1078   93.7466   12.4841 C.ar    1  UNL1        0.0100
     22 C          65.3109   92.5484   12.9073 C.ar    1  UNL1       -0.0028
     23 C          64.4401   91.8379   11.9139 C.ar    1  UNL1       -0.0097
     24 C          64.3663   92.3257   10.4973 C.ar    1  UNL1       -0.0028
     25 C          65.1632   93.5239   10.0742 C.ar    1  UNL1        0.0100
     26 N          67.6279   96.6309   10.2214 N.1     1  UNL1       -0.1908
     27 C          66.8310   95.4327   10.6445 C.1     1  UNL1        0.1004
     28 C          62.3618   90.3044   11.6329 C.ar    1  UNL1        0.0094
     29 C          62.3674   90.0203   10.1600 C.ar    1  UNL1       -0.0004
     30 C          61.0860   89.6850    9.4560 C.ar    1  UNL1        0.0204
     31 C          59.7990   89.6339   10.2248 C.ar    1  UNL1        0.0989
     32 N          59.7934   89.9179   11.6976 N.ar    1  UNL1       -0.2426
     33 C          61.0748   90.2532   12.4017 C.ar    1  UNL1        0.0954
@<TRIPOS>BOND
     1    26    27    3
     2    27    20    1
     3    20    21   ar
     4    21    22   ar
     5    22    23   ar
     6    23    19    1
     7    19     1    1
     8     1     2    2
     9     1     3   am
    10     3     4    1
    11     4     5    1
    12     5     6    1
    13     6     9    1
    14     9    10   ar
    15    10    11   ar
    16    11    12   ar
    17    12    15    1
    18    15    16    1
    19    15    17    1
    20    15    18    1
    21    12    13   ar
    22    13    14   ar
    23     6     7    1
    24     7     8    1
    25    19    28    1
    26    28    29   ar
    27    29    30   ar
    28    30    31   ar
    29    31    32   ar
    30    32    33   ar
    31    23    24   ar
    32    24    25   ar
    33    25    20   ar
    34     8     3    1
    35    33    28   ar
    36    14     9   ar
@<TRIPOS>MOLECULE
*****
 33 36 0 0 0
SMALL
GASTEIGER

@<TRIPOS>ATOM
      1 C          63.8833   88.8332   14.3834 C.2     1  UNL1        0.2335
      2 O          64.1303   89.0898   15.8406 O.2     1  UNL1       -0.2742
      3 N          63.7151   87.4277   13.8873 N.am    1  UNL1       -0.2755
      4 C          63.4681   87.1711   12.4302 C.3     1  UNL1        0.1148
      5 C          63.2999   85.7656   11.9341 C.3     1  UNL1        0.1124
      6 N          63.3787   84.6166   12.8951 N.pl3   1  UNL1       -0.3029
      7 C          63.6257   84.8731   14.3523 C.3     1  UNL1        0.1124
      8 C          63.7939   86.2786   14.8484 C.3     1  UNL1        0.1148
      9 C          63.2105   83.2110   12.3990 C.ar    1  UNL1        0.0674
     10 C          63.5877   82.8629   10.9896 C.ar    1  UNL1        0.0176
     11 C          63.4195   81.4574   10.4935 C.ar    1  UNL1        0.0244
     12 C          62.8741   80.3999   11.4068 C.ar    1  UNL1        0.1527
     13 N          62.4968   80.7479   12.8163 N.ar    1  UNL1       -0.2386
     14 C          62.6650   82.1535   13.3124 C.ar    1  UNL1        0.1132
     15 C          62.7059   78.9943   10.9107 C.3     1  UNL1        0.4348
     16 F          62.5377   77.5888   10.4146 F       1  UNL1       -0.1644
     17 F          62.8857   79.4708    9.4998 F       1  UNL1       -0.1644
     18 F          62.5261   78.5179   12.3216 F       1  UNL1       -0.1644
     19 C          63.8045   89.9822   13.4224 C.3     1  UNL1        0.1226
     20 C          61.0249   89.7743    9.8896 C.ar    1  UNL1        0.0684
     21 C          62.4962   89.9727    9.6757 C.ar    1  UNL1        0.0100
     22 C          63.4227   90.0420   10.8533 C.ar    1  UNL1       -0.0028
     23 C          62.8780   89.9129   12.2448 C.ar    1  UNL1       -0.0097
     24 C          61.4066   89.7145   12.4588 C.ar    1  UNL1       -0.0028
     25 C          60.4801   89.6452   11.2812 C.ar    1  UNL1        0.0100
     26 N          59.1719   89.6356    7.5344 N.1     1  UNL1       -0.1908
     27 C          60.0984   89.7050    8.7120 C.1     1  UNL1        0.1004
     28 C          64.6522   91.2006   13.6391 C.ar    1  UNL1        0.0094
     29 C          65.1170   92.0095   12.4644 C.ar    1  UNL1       -0.0004
     30 C          65.9647   93.2278   12.6810 C.ar    1  UNL1        0.0204
     31 C          66.3477   93.6373   14.0723 C.ar    1  UNL1        0.0989
     32 N          65.8830   92.8285   15.2469 N.ar    1  UNL1       -0.2426
     33 C          65.0352   91.6101   15.0303 C.ar    1  UNL1        0.0954
@<TRIPOS>BOND
     1    26    27    3
     2    27    20    1
     3    20    21   ar
     4    21    22   ar
     5    22    23   ar
     6    23    19    1
     7    19     1    1
     8     1     2    2
     9     1     3   am
    10     3     4    1
    11     4     5    1
    12     5     6    1
    13     6     9    1
    14     9    10   ar
    15    10    11   ar
    16    11    12   ar
    17    12    15    1
    18    15    16    1
    19    15    17    1
    20    15    18    1
    21    12    13   ar
    22    13    14   ar
    23     6     7    1
    24     7     8    1
    25    19    28    1
    26    28    29   ar
    27    29    30   ar
    28    30    31   ar
    29    31    32   ar
    30    32    33   ar
    31    23    24   ar
    32    24    25   ar
    33    25    20   ar
    34     8     3    1
    35    33    28   ar
    36    14     9   ar
@<TRIPOS>MOLECULE
*****
 33 36 0 0 0
SMALL
GASTEIGER

@<TRIPOS>ATOM
      1 C          64.2552   95.2626   -2.4712 C.2     1  UNL1        0.2335
      2 O          65.5010   96.0575   -2.2139 O.2     1  UNL1       -0.2742
      3 N          63.5088   94.6462   -1.3254 N.am    1  UNL1       -0.2755
      4 C          62.2631   93.8513   -1.5826 C.3     1  UNL1        0.1148
      5 C          61.5167   93.2349   -0.4368 C.3     1  UNL1        0.1124
      6 N          62.0161   93.4133    0.9663 N.pl3   1  UNL1       -0.3029
      7 C          63.2619   94.2082    1.2236 C.3     1  UNL1        0.1124
      8 C          64.0082   94.8247    0.0778 C.3     1  UNL1        0.1148
      9 C          61.2697   92.7969    2.1122 C.ar    1  UNL1        0.0674
     10 C          62.0056   91.9852    3.1367 C.ar    1  UNL1        0.0176
     11 C          61.2592   91.3688    4.2825 C.ar    1  UNL1        0.0244
     12 C          59.7769   91.5641    4.4038 C.ar    1  UNL1        0.1527
     13 N          59.0410   92.3758    3.3793 N.ar    1  UNL1       -0.2386
     14 C          59.7873   92.9922    2.2335 C.ar    1  UNL1        0.1132
     15 C          59.0306   90.9476    5.5497 C.3     1  UNL1        0.4348
     16 F          58.2842   90.3312    6.6955 F       1  UNL1       -0.1644
     17 F          57.8404   91.8050    5.2357 F       1  UNL1       -0.1644
     18 F          60.2207   90.0903    5.8637 F       1  UNL1       -0.1644
     19 C          63.7558   95.0841   -3.8743 C.3     1  UNL1        0.1226
     20 C          59.4380   95.8975   -4.8464 C.ar    1  UNL1        0.0684
     21 C          60.1090   94.6683   -5.3836 C.ar    1  UNL1        0.0100
     22 C          61.5483   94.3972   -5.0596 C.ar    1  UNL1       -0.0028
     23 C          62.3165   95.3553   -4.1983 C.ar    1  UNL1       -0.0097
     24 C          61.6455   96.5845   -3.6611 C.ar    1  UNL1       -0.0028
     25 C          60.2062   96.8556   -3.9851 C.ar    1  UNL1        0.0100
     26 N          56.5594   96.4398   -5.4944 N.1     1  UNL1       -0.1908
     27 C          57.9987   96.1686   -5.1704 C.1     1  UNL1        0.1004
     28 C          64.6957   94.6345   -4.9534 C.ar    1  UNL1        0.0094
     29 C          65.3190   95.6425   -5.8730 C.ar    1  UNL1       -0.0004
     30 C          66.2589   95.1929   -6.9521 C.ar    1  UNL1        0.0204
     31 C          66.5755   93.7354   -7.1116 C.ar    1  UNL1        0.0989
     32 N          65.9523   92.7275   -6.1920 N.ar    1  UNL1       -0.2426
     33 C          65.0124   93.1771   -5.1129 C.ar    1  UNL1        0.0954
@<TRIPOS>BOND
     1    26    27    3
     2    27    20    1
     3    20    21   ar
     4    21    22   ar
     5    22    23   ar
     6    23    19    1
     7    19     1    1
     8     1     2    2
     9     1     3   am
    10     3     4    1
    11     4     5    1
    12     5     6    1
    13     6     9    1
    14     9    10   ar
    15    10    11   ar
    16    11    12   ar
    17    12    15    1
    18    15    16    1
    19    15    17    1
    20    15    18    1
    21    12    13   ar
    22    13    14   ar
    23     6     7    1
    24     7     8    1
    25    19    28    1
    26    28    29   ar
    27    29    30   ar
    28    30    31   ar
    29    31    32   ar
    30    32    33   ar
    31    23    24   ar
    32    24    25   ar
    33    25    20   ar
    34     8     3    1
    35    33    28   ar
    36    14     9   ar
@<TRIPOS>MOLECULE
*****
 33 36 0 0 0
SMALL
GASTEIGER

@<TRIPOS>ATOM
      1 C          60.6087   88.6396   11.5334 C.2     1  UNL1        0.2335
      2 O          59.2821   88.7293   12.2280 O.2     1  UNL1       -0.2742
      3 N          61.8014   89.3514   12.0997 N.am    1  UNL1       -0.2755
      4 C          63.1279   89.2618   11.4052 C.3     1  UNL1        0.1148
      5 C          64.3206   89.9736   11.9714 C.3     1  UNL1        0.1124
      6 N          64.1869   90.7751   13.2322 N.pl3   1  UNL1       -0.3029
      7 C          62.8603   90.8648   13.9268 C.3     1  UNL1        0.1124
      8 C          61.6676   90.1530   13.3605 C.3     1  UNL1        0.1148
      9 C          65.3796   91.4870   13.7985 C.ar    1  UNL1        0.0674
     10 C          65.4971   91.6922   15.2797 C.ar    1  UNL1        0.0176
     11 C          66.6898   92.4041   15.8460 C.ar    1  UNL1        0.0244
     12 C          67.7651   92.9107   14.9310 C.ar    1  UNL1        0.1527
     13 N          67.6476   92.7054   13.4497 N.ar    1  UNL1       -0.2386
     14 C          66.4549   91.9936   12.8835 C.ar    1  UNL1        0.1132
     15 C          68.9578   93.6225   15.4973 C.3     1  UNL1        0.4348
     16 F          70.1505   94.3344   16.0636 F       1  UNL1       -0.1644
     17 F          68.0544   94.4403   16.3720 F       1  UNL1       -0.1644
     18 F          69.8612   92.8047   14.6226 F       1  UNL1       -0.1644
     19 C          60.7424   87.8381   10.2726 C.3     1  UNL1        0.1226
     20 C          63.1503   84.0365   10.2679 C.ar    1  UNL1        0.0684
     21 C          62.4561   84.4830   11.5203 C.ar    1  UNL1        0.0100
     22 C          61.6535   85.7502   11.5219 C.ar    1  UNL1       -0.0028
     23 C          61.5450   86.5709   10.2710 C.ar    1  UNL1       -0.0097
     24 C          62.2392   86.1244    9.0186 C.ar    1  UNL1       -0.0028
     25 C          63.0419   84.8572    9.0170 C.ar    1  UNL1        0.0100
     26 N          64.7556   81.5021   10.2647 N.1     1  UNL1       -0.1908
     27 C          63.9529   82.7693   10.2663 C.1     1  UNL1        0.1004
     28 C          60.0735   88.3038    9.0134 C.ar    1  UNL1        0.0094
     29 C          60.3943   89.6564    8.4498 C.ar    1  UNL1       -0.0004
     30 C          59.7254   90.1220    7.1906 C.ar    1  UNL1        0.0204
     31 C          58.7356   89.2352    6.4949 C.ar    1  UNL1        0.0989
     32 N          58.4148   87.8826    7.0585 N.ar    1  UNL1       -0.2426
     33 C          59.0837   87.4169    8.3178 C.ar    1  UNL1        0.0954
@<TRIPOS>BOND
     1    26    27    3
     2    27    20    1
     3    20    21   ar
     4    21    22   ar
     5    22    23   ar
     6    23    19    1
     7    19     1    1
     8     1     2    2
     9     1     3   am
    10     3     4    1
    11     4     5    1
    12     5     6    1
    13     6     9    1
    14     9    10   ar
    15    10    11   ar
    16    11    12   ar
    17    12    15    1
    18    15    16    1
    19    15    17    1
    20    15    18    1
    21    12    13   ar
    22    13    14   ar
    23     6     7    1
    24     7     8    1
    25    19    28    1
    26    28    29   ar
    27    29    30   ar
    28    30    31   ar
    29    31    32   ar
    30    32    33   ar
    31    23    24   ar
    32    24    25   ar
    33    25    20   ar
    34     8     3    1
    35    33    28   ar
    36    14     9   ar
@<TRIPOS>MOLECULE
*****
 33 36 0 0 0
SMALL
GASTEIGER

@<TRIPOS>ATOM
      1 C          62.3322   89.8327   12.0342 C.2     1  UNL1        0.2335
      2 O          61.2205   90.5841   11.3636 O.2     1  UNL1       -0.2742
      3 N          62.4104   88.3400   11.9097 N.am    1  UNL1       -0.2755
      4 C          63.5220   87.5886   12.5803 C.3     1  UNL1        0.1148
      5 C          63.6002   86.0958   12.4557 C.3     1  UNL1        0.1124
      6 N          62.5668   85.3544   11.6605 N.pl3   1  UNL1       -0.3029
      7 C          61.4551   86.1058   10.9898 C.3     1  UNL1        0.1124
      8 C          61.3769   87.5986   11.1144 C.3     1  UNL1        0.1148
      9 C          62.6450   83.8617   11.5359 C.ar    1  UNL1        0.0674
     10 C          63.1926   83.2411   10.2849 C.ar    1  UNL1        0.0176
     11 C          63.2708   81.7483   10.1604 C.ar    1  UNL1        0.0244
     12 C          62.8013   80.8761   11.2867 C.ar    1  UNL1        0.1527
     13 N          62.2537   81.4966   12.5378 N.ar    1  UNL1       -0.2386
     14 C          62.1755   82.9894   12.6624 C.ar    1  UNL1        0.1132
     15 C          62.8795   79.3833   11.1622 C.3     1  UNL1        0.4348
     16 F          62.9577   77.8906   11.0376 F       1  UNL1       -0.1644
     17 F          63.1568   79.5204    9.6944 F       1  UNL1       -0.1644
     18 F          62.6023   79.2463   12.6299 F       1  UNL1       -0.1644
     19 C          63.3656   90.5741   12.8294 C.3     1  UNL1        0.1226
     20 C          66.3708   93.1862   10.7329 C.ar    1  UNL1        0.0684
     21 C          66.6693   92.6490   12.1012 C.ar    1  UNL1        0.0100
     22 C          65.6675   91.7783   12.8000 C.ar    1  UNL1       -0.0028
     23 C          64.3673   91.4448   12.1306 C.ar    1  UNL1       -0.0097
     24 C          64.0689   91.9820   10.7623 C.ar    1  UNL1       -0.0028
     25 C          65.0706   92.8527   10.0634 C.ar    1  UNL1        0.0100
     26 N          68.3743   94.9276    9.3352 N.1     1  UNL1       -0.1908
     27 C          67.3725   94.0569   10.0340 C.1     1  UNL1        0.1004
     28 C          63.3972   90.4448   14.3235 C.ar    1  UNL1        0.0094
     29 C          63.0740   89.1302   14.9696 C.ar    1  UNL1       -0.0004
     30 C          63.1057   89.0009   16.4636 C.ar    1  UNL1        0.0204
     31 C          63.4605   90.1862   17.3117 C.ar    1  UNL1        0.0989
     32 N          63.7837   91.5008   16.6657 N.ar    1  UNL1       -0.2426
     33 C          63.7521   91.6301   15.1715 C.ar    1  UNL1        0.0954
@<TRIPOS>BOND
     1    26    27    3
     2    27    20    1
     3    20    21   ar
     4    21    22   ar
     5    22    23   ar
     6    23    19    1
     7    19     1    1
     8     1     2    2
     9     1     3   am
    10     3     4    1
    11     4     5    1
    12     5     6    1
    13     6     9    1
    14     9    10   ar
    15    10    11   ar
    16    11    12   ar
    17    12    15    1
    18    15    16    1
    19    15    17    1
    20    15    18    1
    21    12    13   ar
    22    13    14   ar
    23     6     7    1
    24     7     8    1
    25    19    28    1
    26    28    29   ar
    27    29    30   ar
    28    30    31   ar
    29    31    32   ar
    30    32    33   ar
    31    23    24   ar
    32    24    25   ar
    33    25    20   ar
    34     8     3    1
    35    33    28   ar
    36    14     9   ar
@<TRIPOS>MOLECULE
*****
 33 36 0 0 0
SMALL
GASTEIGER

@<TRIPOS>ATOM
      1 C          64.0134   90.1432   15.4738 C.2     1  UNL1        0.2335
      2 O          63.5693   90.7635   16.7654 O.2     1  UNL1       -0.2742
      3 N          63.8065   88.6767   15.2360 N.am    1  UNL1       -0.2755
      4 C          64.2505   88.0564   13.9444 C.3     1  UNL1        0.1148
      5 C          64.0437   86.5899   13.7066 C.3     1  UNL1        0.1124
      6 N          63.3929   85.7436   14.7603 N.pl3   1  UNL1       -0.3029
      7 C          62.9489   86.3639   16.0519 C.3     1  UNL1        0.1124
      8 C          63.1557   87.8304   16.2897 C.3     1  UNL1        0.1148
      9 C          63.1861   84.2771   14.5225 C.ar    1  UNL1        0.0674
     10 C          61.8789   83.6359   14.8831 C.ar    1  UNL1        0.0176
     11 C          61.6721   82.1693   14.6453 C.ar    1  UNL1        0.0244
     12 C          62.7725   81.3441   14.0468 C.ar    1  UNL1        0.1527
     13 N          64.0797   81.9853   13.6862 N.ar    1  UNL1       -0.2386
     14 C          64.2865   83.4519   13.9240 C.ar    1  UNL1        0.1132
     15 C          62.5656   79.8776   13.8090 C.3     1  UNL1        0.4348
     16 F          62.3588   78.4111   13.5712 F       1  UNL1       -0.1644
     17 F          61.0868   80.1038   13.7000 F       1  UNL1       -0.1644
     18 F          64.0445   79.6513   13.9181 F       1  UNL1       -0.1644
     19 C          64.6642   90.9894   14.4201 C.3     1  UNL1        0.1226
     20 C          68.4644   93.2129   15.3499 C.ar    1  UNL1        0.0684
     21 C          68.3872   92.3343   14.1366 C.ar    1  UNL1        0.0100
     22 C          67.1204   91.5932   13.8267 C.ar    1  UNL1       -0.0028
     23 C          65.9309   91.7306   14.7300 C.ar    1  UNL1       -0.0097
     24 C          66.0081   92.6091   15.9433 C.ar    1  UNL1       -0.0028
     25 C          67.2749   93.3503   16.2533 C.ar    1  UNL1        0.0100
     26 N          70.9978   94.6952   15.9698 N.1     1  UNL1       -0.1908
     27 C          69.7311   93.9540   15.6599 C.1     1  UNL1        0.1004
     28 C          64.0482   91.0945   13.0565 C.ar    1  UNL1        0.0094
     29 C          64.7792   91.8051   11.9560 C.ar    1  UNL1       -0.0004
     30 C          64.1632   91.9101   10.5924 C.ar    1  UNL1        0.0204
     31 C          62.8164   91.3046   10.3291 C.ar    1  UNL1        0.0989
     32 N          62.0854   90.5941   11.4294 N.ar    1  UNL1       -0.2426
     33 C          62.7014   90.4890   12.7932 C.ar    1  UNL1        0.0954
@<TRIPOS>BOND
     1    26    27    3
     2    27    20    1
     3    20    21   ar
     4    21    22   ar
     5    22    23   ar
     6    23    19    1
     7    19     1    1
     8     1     2    2
     9     1     3   am
    10     3     4    1
    11     4     5    1
    12     5     6    1
    13     6     9    1
    14     9    10   ar
    15    10    11   ar
    16    11    12   ar
    17    12    15    1
    18    15    16    1
    19    15    17    1
    20    15    18    1
    21    12    13   ar
    22    13    14   ar
    23     6     7    1
    24     7     8    1
    25    19    28    1
    26    28    29   ar
    27    29    30   ar
    28    30    31   ar
    29    31    32   ar
    30    32    33   ar
    31    23    24   ar
    32    24    25   ar
    33    25    20   ar
    34     8     3    1
    35    33    28   ar
    36    14     9   ar
@<TRIPOS>MOLECULE
*****
 33 36 0 0 0
SMALL
GASTEIGER

@<TRIPOS>ATOM
      1 C          63.2752   90.7138   11.0524 C.2     1  UNL1        0.2335
      2 O          62.4860   91.2609    9.9000 O.2     1  UNL1       -0.2742
      3 N          63.1345   89.2717   11.4405 N.am    1  UNL1       -0.2755
      4 C          63.9236   88.7247   12.5928 C.3     1  UNL1        0.1148
      5 C          63.7829   87.2826   12.9808 C.3     1  UNL1        0.1124
      6 N          62.8530   86.3875   12.2165 N.pl3   1  UNL1       -0.3029
      7 C          62.0639   86.9346   11.0640 C.3     1  UNL1        0.1124
      8 C          62.2046   88.3767   10.6760 C.3     1  UNL1        0.1148
      9 C          62.7123   84.9454   12.6045 C.ar    1  UNL1        0.0674
     10 C          62.7597   83.8775   11.5522 C.ar    1  UNL1        0.0176
     11 C          62.6190   82.4355   11.9402 C.ar    1  UNL1        0.0244
     12 C          62.4309   82.0612   13.3805 C.ar    1  UNL1        0.1527
     13 N          62.3835   83.1291   14.4329 N.ar    1  UNL1       -0.2386
     14 C          62.5242   84.5712   14.0449 C.ar    1  UNL1        0.1132
     15 C          62.2902   80.6191   13.7685 C.3     1  UNL1        0.4348
     16 F          62.1494   79.1770   14.1565 F       1  UNL1       -0.1644
     17 F          60.7970   80.7619   13.7577 F       1  UNL1       -0.1644
     18 F          63.7833   80.4763   13.7793 F       1  UNL1       -0.1644
     19 C          64.2050   91.6089   11.8168 C.3     1  UNL1        0.1226
     20 C          66.7011   94.6508    9.6338 C.ar    1  UNL1        0.0684
     21 C          65.4190   95.0660   10.2923 C.ar    1  UNL1        0.0100
     22 C          64.5870   94.0520   11.0200 C.ar    1  UNL1       -0.0028
     23 C          65.0371   92.6228   11.0891 C.ar    1  UNL1       -0.0097
     24 C          66.3192   92.2077   10.4306 C.ar    1  UNL1       -0.0028
     25 C          67.1512   93.2217    9.7029 C.ar    1  UNL1        0.0100
     26 N          68.3652   96.6788    8.1784 N.1     1  UNL1       -0.1908
     27 C          67.5332   95.6648    8.9061 C.1     1  UNL1        0.1004
     28 C          64.3028   91.4899   13.3089 C.ar    1  UNL1        0.0094
     29 C          65.5076   92.0226   14.0264 C.ar    1  UNL1       -0.0004
     30 C          65.6053   91.9037   15.5184 C.ar    1  UNL1        0.0204
     31 C          64.4984   91.2520   16.2930 C.ar    1  UNL1        0.0989
     32 N          63.2936   90.7193   15.5756 N.ar    1  UNL1       -0.2426
     33 C          63.1958   90.8382   14.0834 C.ar    1  UNL1        0.0954
@<TRIPOS>BOND
     1    26    27    3
     2    27    20    1
     3    20    21   ar
     4    21    22   ar
     5    22    23   ar
     6    23    19    1
     7    19     1    1
     8     1     2    2
     9     1     3   am
    10     3     4    1
    11     4     5    1
    12     5     6    1
    13     6     9    1
    14     9    10   ar
    15    10    11   ar
    16    11    12   ar
    17    12    15    1
    18    15    16    1
    19    15    17    1
    20    15    18    1
    21    12    13   ar
    22    13    14   ar
    23     6     7    1
    24     7     8    1
    25    19    28    1
    26    28    29   ar
    27    29    30   ar
    28    30    31   ar
    29    31    32   ar
    30    32    33   ar
    31    23    24   ar
    32    24    25   ar
    33    25    20   ar
    34     8     3    1
    35    33    28   ar
    36    14     9   ar
