@<TRIPOS>MOLECULE
*****
 33 36 0 0 0
SMALL
GASTEIGER

@<TRIPOS>ATOM
      1 C          66.4412   92.5860   13.9941 C.2     1  UNL1        0.2383
      2 O          66.7368   93.7341   13.0752 O.2     1  UNL1       -0.2735
      3 N          65.4906   91.5077   13.5654 N.am    1  UNL1       -0.2695
      4 C          65.1951   90.3596   14.4843 C.3     1  UNL1        0.1184
      5 C          64.2444   89.2814   14.0556 C.3     1  UNL1        0.1299
      6 N          63.5893   89.3513   12.7081 N.ar    1  UNL1       -0.3005
      7 C          63.8849   90.4995   11.7892 C.ar    1  UNL1        0.1416
      8 N          63.0945   90.3007   10.5299 N.ar    1  UNL1       -0.2279
      9 C          62.3105   89.0296   10.6705 C.ar    1  UNL1        0.1125
     10 C          62.6163   88.4429   12.0167 C.ar    1  UNL1        0.1318
     11 C          64.8355   91.5777   12.2179 C.3     1  UNL1        0.1578
     12 C          61.3834   88.4475    9.6450 C.ar    1  UNL1        0.0205
     13 C          61.5506   87.0231    9.2054 C.ar    1  UNL1        0.0039
     14 C          60.6235   86.4409    8.1799 C.ar    1  UNL1        0.0297
     15 C          59.5293   87.2831    7.5940 C.ar    1  UNL1        0.1401
     16 F          58.6022   86.7010    6.5685 F       1  UNL1       -0.2042
     17 C          59.3621   88.7075    8.0336 C.ar    1  UNL1        0.0297
     18 C          60.2892   89.2897    9.0590 C.ar    1  UNL1        0.0039
     19 C          68.4246   92.2861   14.6840 C.3     1  UNL1        0.0249
     20 C          67.0963   92.5160   15.3416 C.3     1  UNL1        0.1089
     21 C          65.7680   92.7460   15.9993 C.3     1  UNL1        0.0249
     22 N          67.7515   92.4461   16.6892 N.3     1  UNL1       -0.3164
     23 H          67.0484   92.5777   17.4164 H       1  UNL1        0.1192
     24 H          68.4575   93.1786   16.7625 H       1  UNL1        0.1192
     25 N          62.0488   87.1711   12.5737 N.pl3   1  UNL1       -0.2980
     26 H          61.1629   87.1739   13.0032 H       1  UNL1        0.1536
     27 C          62.8310   85.8949   12.4765 C.ar    1  UNL1        0.0495
     28 C          63.7940   85.5207   13.5639 C.ar    1  UNL1        0.0169
     29 C          64.5762   84.2444   13.4666 C.ar    1  UNL1        0.0309
     30 C          64.3953   83.3423   12.2819 C.ar    1  UNL1        0.1402
     31 F          65.1774   82.0661   12.1846 F       1  UNL1       -0.2042
     32 C          63.4322   83.7165   11.1945 C.ar    1  UNL1        0.0309
     33 C          62.6501   84.9927   11.2918 C.ar    1  UNL1        0.0169
@<TRIPOS>BOND
     1    19    20    1
     2    20    21    1
     3    20    22    1
     4    20     1    1
     5     1     2    2
     6     1     3   am
     7     3     4    1
     8     4     5    1
     9     5     6    1
    10     6     7   ar
    11     7     8   ar
    12     8     9   ar
    13     9    12    1
    14    12    13   ar
    15    13    14   ar
    16    14    15   ar
    17    15    16    1
    18    15    17   ar
    19    17    18   ar
    20     9    10   ar
    21    10    25    1
    22    25    27    1
    23    27    28   ar
    24    28    29   ar
    25    29    30   ar
    26    30    31    1
    27    30    32   ar
    28    32    33   ar
    29     7    11    1
    30    11     3    1
    31    10     6   ar
    32    33    27   ar
    33    18    12   ar
    34    22    23    1
    35    22    24    1
    36    25    26    1
@<TRIPOS>MOLECULE
*****
 33 36 0 0 0
SMALL
GASTEIGER

@<TRIPOS>ATOM
      1 C          61.1964   87.2422   10.8719 C.2     1  UNL1        0.2383
      2 O          61.3799   85.9632   11.6337 O.2     1  UNL1       -0.2735
      3 N          62.0308   88.4423   11.2090 N.am    1  UNL1       -0.2695
      4 C          61.8472   89.7213   10.4472 C.3     1  UNL1        0.1184
      5 C          62.6816   90.9214   10.7843 C.3     1  UNL1        0.1299
      6 N          63.6996   90.8424   11.8832 N.ar    1  UNL1       -0.3005
      7 C          63.8831   89.5634   12.6449 C.ar    1  UNL1        0.1416
      8 N          64.9570   89.7837   13.6689 N.ar    1  UNL1       -0.2279
      9 C          65.4371   91.1989   13.5399 C.ar    1  UNL1        0.1125
     10 C          64.6600   91.8532   12.4363 C.ar    1  UNL1        0.1318
     11 C          63.0487   88.3633   12.3079 C.3     1  UNL1        0.1578
     12 C          66.5066   91.8462   14.3689 C.ar    1  UNL1        0.0205
     13 C          66.1743   92.3982   15.7235 C.ar    1  UNL1        0.0039
     14 C          67.2437   93.0455   16.5525 C.ar    1  UNL1        0.0297
     15 C          68.6454   93.1407   16.0270 C.ar    1  UNL1        0.1401
     16 F          69.7149   93.7880   16.8561 F       1  UNL1       -0.2042
     17 C          68.9777   92.5886   14.6725 C.ar    1  UNL1        0.0297
     18 C          67.9083   91.9414   13.8434 C.ar    1  UNL1        0.0039
     19 C          61.0170   86.4063    8.9306 C.3     1  UNL1        0.0249
     20 C          60.1785   87.3212    9.7731 C.3     1  UNL1        0.1089
     21 C          59.3399   88.2360   10.6156 C.3     1  UNL1        0.0249
     22 N          59.1605   87.4001    8.6741 N.3     1  UNL1       -0.3164
     23 H          58.3921   88.0045    8.9652 H       1  UNL1        0.1192
     24 H          58.8018   86.4662    8.4752 H       1  UNL1        0.1192
     25 N          64.8159   93.2697   11.9679 N.pl3   1  UNL1       -0.2980
     26 H          64.2752   93.9849   12.3746 H       1  UNL1        0.1536
     27 C          65.7954   93.5964   10.8800 C.ar    1  UNL1        0.0495
     28 C          66.7895   92.5665   10.4316 C.ar    1  UNL1        0.0169
     29 C          67.7691   92.8934    9.3436 C.ar    1  UNL1        0.0309
     30 C          67.7546   94.2502    8.7041 C.ar    1  UNL1        0.1402
     31 F          68.7342   94.5769    7.6162 F       1  UNL1       -0.2042
     32 C          66.7605   95.2801    9.1525 C.ar    1  UNL1        0.0309
     33 C          65.7810   94.9532   10.2404 C.ar    1  UNL1        0.0169
@<TRIPOS>BOND
     1    19    20    1
     2    20    21    1
     3    20    22    1
     4    20     1    1
     5     1     2    2
     6     1     3   am
     7     3     4    1
     8     4     5    1
     9     5     6    1
    10     6     7   ar
    11     7     8   ar
    12     8     9   ar
    13     9    12    1
    14    12    13   ar
    15    13    14   ar
    16    14    15   ar
    17    15    16    1
    18    15    17   ar
    19    17    18   ar
    20     9    10   ar
    21    10    25    1
    22    25    27    1
    23    27    28   ar
    24    28    29   ar
    25    29    30   ar
    26    30    31    1
    27    30    32   ar
    28    32    33   ar
    29     7    11    1
    30    11     3    1
    31    10     6   ar
    32    33    27   ar
    33    18    12   ar
    34    22    23    1
    35    22    24    1
    36    25    26    1
@<TRIPOS>MOLECULE
*****
 33 36 0 0 0
SMALL
GASTEIGER

@<TRIPOS>ATOM
      1 C          63.5463   81.4879   12.9841 C.2     1  UNL1        0.2383
      2 O          64.1192   80.8389   14.2089 O.2     1  UNL1       -0.2735
      3 N          63.4558   82.9828   12.9000 N.am    1  UNL1       -0.2695
      4 C          62.8829   83.6319   11.6751 C.3     1  UNL1        0.1184
      5 C          62.7925   85.1268   11.5911 C.3     1  UNL1        0.1299
      6 N          63.2750   85.9727   12.7319 N.ar    1  UNL1       -0.3005
      7 C          63.8480   85.3236   13.9568 C.ar    1  UNL1        0.1416
      8 N          64.2404   86.4084   14.9157 N.ar    1  UNL1       -0.2279
      9 C          63.9099   87.7278   14.2834 C.ar    1  UNL1        0.1125
     10 C          63.3133   87.4585   12.9338 C.ar    1  UNL1        0.1318
     11 C          63.9384   83.8287   14.0409 C.3     1  UNL1        0.1578
     12 C          64.1363   89.0793   14.8936 C.ar    1  UNL1        0.0205
     13 C          63.3579   89.4944   16.1068 C.ar    1  UNL1        0.0039
     14 C          63.5843   90.8458   16.7169 C.ar    1  UNL1        0.0297
     15 C          64.5891   91.7822   16.1139 C.ar    1  UNL1        0.1401
     16 F          64.8155   93.1337   16.7241 F       1  UNL1       -0.2042
     17 C          65.3674   91.3671   14.9007 C.ar    1  UNL1        0.0297
     18 C          65.1411   90.0157   14.2906 C.ar    1  UNL1        0.0039
     19 C          63.8887   81.4559   10.8908 C.3     1  UNL1        0.0249
     20 C          63.0637   80.6421   11.8432 C.3     1  UNL1        0.1089
     21 C          62.2388   79.8282   12.7956 C.3     1  UNL1        0.0249
     22 N          62.5812   79.7962   10.7022 N.3     1  UNL1       -0.3164
     23 H          61.9429   79.0826   11.0542 H       1  UNL1        0.1192
     24 H          63.3781   79.3469   10.2513 H       1  UNL1        0.1192
     25 N          62.8383   88.4934   11.9573 N.pl3   1  UNL1       -0.2980
     26 H          63.1925   89.4109   12.0014 H       1  UNL1        0.1536
     27 C          61.8238   88.1304   10.9139 C.ar    1  UNL1        0.0495
     28 C          62.2589   87.4526    9.6484 C.ar    1  UNL1        0.0169
     29 C          61.2442   87.0896    8.6049 C.ar    1  UNL1        0.0309
     30 C          59.7945   87.4044    8.8269 C.ar    1  UNL1        0.1402
     31 F          58.7800   87.0413    7.7834 F       1  UNL1       -0.2042
     32 C          59.3594   88.0821   10.0923 C.ar    1  UNL1        0.0309
     33 C          60.3740   88.4451   11.1358 C.ar    1  UNL1        0.0169
@<TRIPOS>BOND
     1    19    20    1
     2    20    21    1
     3    20    22    1
     4    20     1    1
     5     1     2    2
     6     1     3   am
     7     3     4    1
     8     4     5    1
     9     5     6    1
    10     6     7   ar
    11     7     8   ar
    12     8     9   ar
    13     9    12    1
    14    12    13   ar
    15    13    14   ar
    16    14    15   ar
    17    15    16    1
    18    15    17   ar
    19    17    18   ar
    20     9    10   ar
    21    10    25    1
    22    25    27    1
    23    27    28   ar
    24    28    29   ar
    25    29    30   ar
    26    30    31    1
    27    30    32   ar
    28    32    33   ar
    29     7    11    1
    30    11     3    1
    31    10     6   ar
    32    33    27   ar
    33    18    12   ar
    34    22    23    1
    35    22    24    1
    36    25    26    1
@<TRIPOS>MOLECULE
*****
 33 36 0 0 0
SMALL
GASTEIGER

@<TRIPOS>ATOM
      1 C          59.8451   88.9233    8.4976 C.2     1  UNL1        0.2383
      2 O          59.4131   90.2281    7.8969 O.2     1  UNL1       -0.2735
      3 N          60.8700   88.9047    9.5927 N.am    1  UNL1       -0.2695
      4 C          61.3020   87.5999   10.1934 C.3     1  UNL1        0.1184
      5 C          62.3270   87.5812   11.2885 C.3     1  UNL1        0.1299
      6 N          62.9199   88.8673   11.7828 N.ar    1  UNL1       -0.3005
      7 C          62.4878   90.1721   11.1821 C.ar    1  UNL1        0.1416
      8 N          63.2427   91.2713   11.8692 N.ar    1  UNL1       -0.2279
      9 C          64.1412   90.6458   12.8945 C.ar    1  UNL1        0.1125
     10 C          63.9417   89.1601   12.8412 C.ar    1  UNL1        0.1318
     11 C          61.4629   90.1907   10.0870 C.3     1  UNL1        0.1578
     12 C          65.0753   91.3776   13.8122 C.ar    1  UNL1        0.0205
     13 C          66.3759   91.9110   13.2889 C.ar    1  UNL1        0.0039
     14 C          67.3100   92.6427   14.2065 C.ar    1  UNL1        0.0297
     15 C          66.9435   92.8410   15.6474 C.ar    1  UNL1        0.1401
     16 F          67.8776   93.5728   16.5651 F       1  UNL1       -0.2042
     17 C          65.6429   92.3076   16.1707 C.ar    1  UNL1        0.0297
     18 C          64.7088   91.5759   15.2531 C.ar    1  UNL1        0.0039
     19 C          59.0471   87.1874    9.4194 C.3     1  UNL1        0.0249
     20 C          59.2522   87.6373    8.0033 C.3     1  UNL1        0.1089
     21 C          59.4572   88.0871    6.5871 C.3     1  UNL1        0.0249
     22 N          58.6592   86.3511    7.5090 N.3     1  UNL1       -0.3164
     23 H          58.6563   86.3479    6.4890 H       1  UNL1        0.1192
     24 H          57.7026   86.2637    7.8520 H       1  UNL1        0.1192
     25 N          64.6412   88.1453   13.6960 N.pl3   1  UNL1       -0.2980
     26 H          65.4839   87.7395   13.3886 H       1  UNL1        0.1536
     27 C          64.0569   87.7487   15.0194 C.ar    1  UNL1        0.0495
     28 C          63.5189   88.7979   15.9465 C.ar    1  UNL1        0.0169
     29 C          62.9345   88.4012   17.2699 C.ar    1  UNL1        0.0309
     30 C          62.8883   86.9552   17.6661 C.ar    1  UNL1        0.1402
     31 F          62.3040   86.5585   18.9894 F       1  UNL1       -0.2042
     32 C          63.4263   85.9059   16.7390 C.ar    1  UNL1        0.0309
     33 C          64.0106   86.3027   15.4157 C.ar    1  UNL1        0.0169
@<TRIPOS>BOND
     1    19    20    1
     2    20    21    1
     3    20    22    1
     4    20     1    1
     5     1     2    2
     6     1     3   am
     7     3     4    1
     8     4     5    1
     9     5     6    1
    10     6     7   ar
    11     7     8   ar
    12     8     9   ar
    13     9    12    1
    14    12    13   ar
    15    13    14   ar
    16    14    15   ar
    17    15    16    1
    18    15    17   ar
    19    17    18   ar
    20     9    10   ar
    21    10    25    1
    22    25    27    1
    23    27    28   ar
    24    28    29   ar
    25    29    30   ar
    26    30    31    1
    27    30    32   ar
    28    32    33   ar
    29     7    11    1
    30    11     3    1
    31    10     6   ar
    32    33    27   ar
    33    18    12   ar
    34    22    23    1
    35    22    24    1
    36    25    26    1
@<TRIPOS>MOLECULE
*****
 33 36 0 0 0
SMALL
GASTEIGER

@<TRIPOS>ATOM
      1 C          60.4387   87.9060    8.3261 C.2     1  UNL1        0.2383
      2 O          60.0837   89.1561    7.5770 O.2     1  UNL1       -0.2735
      3 N          61.2897   87.9864    9.5587 N.am    1  UNL1       -0.2695
      4 C          61.6448   86.7363   10.3078 C.3     1  UNL1        0.1184
      5 C          62.4957   86.8167   11.5405 C.3     1  UNL1        0.1299
      6 N          62.9916   88.1472   12.0241 N.ar    1  UNL1       -0.3005
      7 C          62.6365   89.3973   11.2750 C.ar    1  UNL1        0.1416
      8 N          63.2663   90.5583   11.9859 N.ar    1  UNL1       -0.2279
      9 C          64.0106   90.0258   13.1743 C.ar    1  UNL1        0.1125
     10 C          63.8408   88.5356   13.1979 C.ar    1  UNL1        0.1318
     11 C          61.7855   89.3169   10.0424 C.3     1  UNL1        0.1578
     12 C          64.7882   90.8403   14.1653 C.ar    1  UNL1        0.0205
     13 C          64.1762   91.1971   15.4875 C.ar    1  UNL1        0.0039
     14 C          64.9538   92.0116   16.4784 C.ar    1  UNL1        0.0297
     15 C          66.3432   92.4694   16.1471 C.ar    1  UNL1        0.1401
     16 F          67.1208   93.2840   17.1380 F       1  UNL1       -0.2042
     17 C          66.9552   92.1126   14.8249 C.ar    1  UNL1        0.0297
     18 C          66.1776   91.2981   13.8340 C.ar    1  UNL1        0.0039
     19 C          61.3581   86.1219    7.6394 C.3     1  UNL1        0.0249
     20 C          59.9429   86.5756    7.8425 C.3     1  UNL1        0.1089
     21 C          58.5277   87.0292    8.0456 C.3     1  UNL1        0.0249
     22 N          59.4471   85.2450    7.3588 N.3     1  UNL1       -0.3164
     23 H          58.4273   85.2342    7.3794 H       1  UNL1        0.1192
     24 H          59.8072   84.5074    7.9644 H       1  UNL1        0.1192
     25 N          64.4188   87.5983   14.2165 N.pl3   1  UNL1       -0.2980
     26 H          65.1863   87.8800   14.7650 H       1  UNL1        0.1536
     27 C          63.8274   86.2320   14.3994 C.ar    1  UNL1        0.0495
     28 C          64.0877   85.1599   13.3831 C.ar    1  UNL1        0.0169
     29 C          63.4963   83.7935   13.5661 C.ar    1  UNL1        0.0309
     30 C          62.6447   83.4993   14.7653 C.ar    1  UNL1        0.1402
     31 F          62.0534   82.1330   14.9482 F       1  UNL1       -0.2042
     32 C          62.3844   84.5715   15.7815 C.ar    1  UNL1        0.0309
     33 C          62.9757   85.9378   15.5986 C.ar    1  UNL1        0.0169
@<TRIPOS>BOND
     1    19    20    1
     2    20    21    1
     3    20    22    1
     4    20     1    1
     5     1     2    2
     6     1     3   am
     7     3     4    1
     8     4     5    1
     9     5     6    1
    10     6     7   ar
    11     7     8   ar
    12     8     9   ar
    13     9    12    1
    14    12    13   ar
    15    13    14   ar
    16    14    15   ar
    17    15    16    1
    18    15    17   ar
    19    17    18   ar
    20     9    10   ar
    21    10    25    1
    22    25    27    1
    23    27    28   ar
    24    28    29   ar
    25    29    30   ar
    26    30    31    1
    27    30    32   ar
    28    32    33   ar
    29     7    11    1
    30    11     3    1
    31    10     6   ar
    32    33    27   ar
    33    18    12   ar
    34    22    23    1
    35    22    24    1
    36    25    26    1
@<TRIPOS>MOLECULE
*****
 33 36 0 0 0
SMALL
GASTEIGER

@<TRIPOS>ATOM
      1 C          63.4457   82.7244   14.4762 C.2     1  UNL1        0.2383
      2 O          64.2780   82.3846   15.6769 O.2     1  UNL1       -0.2735
      3 N          63.4155   84.1319   13.9585 N.am    1  UNL1       -0.2695
      4 C          62.5833   84.4717   12.7577 C.3     1  UNL1        0.1184
      5 C          62.5531   85.8792   12.2400 C.3     1  UNL1        0.1299
      6 N          63.3551   86.9469   12.9230 N.ar    1  UNL1       -0.3005
      7 C          64.1874   86.6071   14.1238 C.ar    1  UNL1        0.1416
      8 N          64.8684   87.8613   14.5857 N.ar    1  UNL1       -0.2279
      9 C          64.4571   88.9762   13.6704 C.ar    1  UNL1        0.1125
     10 C          63.5218   88.4110   12.6428 C.ar    1  UNL1        0.1318
     11 C          64.2176   85.1996   14.6415 C.3     1  UNL1        0.1578
     12 C          64.9027   90.4053   13.7658 C.ar    1  UNL1        0.0205
     13 C          65.3255   90.9723   15.0886 C.ar    1  UNL1        0.0039
     14 C          65.7711   92.4014   15.1841 C.ar    1  UNL1        0.0297
     15 C          65.7939   93.2634   13.9568 C.ar    1  UNL1        0.1401
     16 F          66.2396   94.6926   14.0522 F       1  UNL1       -0.2042
     17 C          65.3711   92.6964   12.6340 C.ar    1  UNL1        0.0297
     18 C          64.9255   91.2674   12.5385 C.ar    1  UNL1        0.0039
     19 C          63.8517   81.2576   12.9985 C.3     1  UNL1        0.0249
     20 C          62.6437   81.6567   13.7931 C.3     1  UNL1        0.1089
     21 C          61.4357   82.0557   14.5878 C.3     1  UNL1        0.0249
     22 N          61.8416   80.5889   13.1100 N.3     1  UNL1       -0.3164
     23 H          60.8854   80.6026   13.4647 H       1  UNL1        0.1192
     24 H          62.2602   79.6776   13.2964 H       1  UNL1        0.1192
     25 N          62.8679   89.1757   11.5303 N.pl3   1  UNL1       -0.2980
     26 H          63.0818   90.1272   11.3949 H       1  UNL1        0.1536
     27 C          61.8884   88.4909   10.6240 C.ar    1  UNL1        0.0495
     28 C          60.4174   88.7337   10.7891 C.ar    1  UNL1        0.0169
     29 C          59.4378   88.0488    9.8827 C.ar    1  UNL1        0.0309
     30 C          59.9292   87.1212    8.8113 C.ar    1  UNL1        0.1402
     31 F          58.9496   86.4364    7.9050 F       1  UNL1       -0.2042
     32 C          61.4002   86.8785    8.6461 C.ar    1  UNL1        0.0309
     33 C          62.3797   87.5633    9.5525 C.ar    1  UNL1        0.0169
@<TRIPOS>BOND
     1    19    20    1
     2    20    21    1
     3    20    22    1
     4    20     1    1
     5     1     2    2
     6     1     3   am
     7     3     4    1
     8     4     5    1
     9     5     6    1
    10     6     7   ar
    11     7     8   ar
    12     8     9   ar
    13     9    12    1
    14    12    13   ar
    15    13    14   ar
    16    14    15   ar
    17    15    16    1
    18    15    17   ar
    19    17    18   ar
    20     9    10   ar
    21    10    25    1
    22    25    27    1
    23    27    28   ar
    24    28    29   ar
    25    29    30   ar
    26    30    31    1
    27    30    32   ar
    28    32    33   ar
    29     7    11    1
    30    11     3    1
    31    10     6   ar
    32    33    27   ar
    33    18    12   ar
    34    22    23    1
    35    22    24    1
    36    25    26    1
@<TRIPOS>MOLECULE
*****
 33 36 0 0 0
SMALL
GASTEIGER

@<TRIPOS>ATOM
      1 C          66.5664   92.8226   13.8583 C.2     1  UNL1        0.2383
      2 O          66.7901   93.9939   12.9485 O.2     1  UNL1       -0.2735
      3 N          65.6180   91.7319   13.4574 N.am    1  UNL1       -0.2695
      4 C          65.3943   90.5605   14.3672 C.3     1  UNL1        0.1184
      5 C          64.4458   89.4698   13.9662 C.3     1  UNL1        0.1299
      6 N          63.7211   89.5504   12.6555 N.ar    1  UNL1       -0.3005
      7 C          63.9448   90.7218   11.7456 C.ar    1  UNL1        0.1416
      8 N          63.0952   90.5291   10.5245 N.ar    1  UNL1       -0.2279
      9 C          62.3464   89.2387   10.6797 C.ar    1  UNL1        0.1125
     10 C          62.7332   88.6338   11.9967 C.ar    1  UNL1        0.1318
     11 C          64.8932   91.8125   12.1466 C.3     1  UNL1        0.1578
     12 C          61.3803   88.6555    9.6914 C.ar    1  UNL1        0.0205
     13 C          61.2948   87.1684    9.5142 C.ar    1  UNL1        0.0039
     14 C          60.3288   86.5852    8.5260 C.ar    1  UNL1        0.0297
     15 C          59.4483   87.4890    7.7149 C.ar    1  UNL1        0.1401
     16 F          58.4823   86.9058    6.7266 F       1  UNL1       -0.2042
     17 C          59.5339   88.9761    7.8921 C.ar    1  UNL1        0.0297
     18 C          60.4999   89.5593    8.8803 C.ar    1  UNL1        0.0039
     19 C          66.0133   93.0437   15.8942 C.3     1  UNL1        0.0249
     20 C          67.2912   92.7420   15.1691 C.3     1  UNL1        0.1089
     21 C          68.5691   92.4403   14.4440 C.3     1  UNL1        0.0249
     22 N          68.0159   92.6614   16.4800 N.3     1  UNL1       -0.3164
     23 H          68.9995   92.4497   16.3122 H       1  UNL1        0.1192
     24 H          67.6025   91.9252   17.0523 H       1  UNL1        0.1192
     25 N          62.2220   87.3396   12.5566 N.pl3   1  UNL1       -0.2980
     26 H          61.2557   87.1512   12.5575 H       1  UNL1        0.1536
     27 C          63.1829   86.3324   13.1153 C.ar    1  UNL1        0.0495
     28 C          63.3448   84.9992   12.4472 C.ar    1  UNL1        0.0169
     29 C          64.3058   83.9920   13.0060 C.ar    1  UNL1        0.0309
     30 C          65.1049   84.3181   14.2329 C.ar    1  UNL1        0.1402
     31 F          66.0658   83.3110   14.7916 F       1  UNL1       -0.2042
     32 C          64.9430   85.6513   14.9010 C.ar    1  UNL1        0.0309
     33 C          63.9820   86.6584   14.3422 C.ar    1  UNL1        0.0169
@<TRIPOS>BOND
     1    19    20    1
     2    20    21    1
     3    20    22    1
     4    20     1    1
     5     1     2    2
     6     1     3   am
     7     3     4    1
     8     4     5    1
     9     5     6    1
    10     6     7   ar
    11     7     8   ar
    12     8     9   ar
    13     9    12    1
    14    12    13   ar
    15    13    14   ar
    16    14    15   ar
    17    15    16    1
    18    15    17   ar
    19    17    18   ar
    20     9    10   ar
    21    10    25    1
    22    25    27    1
    23    27    28   ar
    24    28    29   ar
    25    29    30   ar
    26    30    31    1
    27    30    32   ar
    28    32    33   ar
    29     7    11    1
    30    11     3    1
    31    10     6   ar
    32    33    27   ar
    33    18    12   ar
    34    22    23    1
    35    22    24    1
    36    25    26    1
@<TRIPOS>MOLECULE
*****
 33 36 0 0 0
SMALL
GASTEIGER

@<TRIPOS>ATOM
      1 C          63.1973   94.5886    0.9873 C.2     1  UNL1        0.2383
      2 O          63.0091   95.4647    2.1902 O.2     1  UNL1       -0.2735
      3 N          62.1046   94.4715   -0.0336 N.am    1  UNL1       -0.2695
      4 C          62.2928   93.5954   -1.2365 C.3     1  UNL1        0.1184
      5 C          61.2001   93.4783   -2.2574 C.3     1  UNL1        0.1299
      6 N          59.9192   94.2374   -2.0755 N.ar    1  UNL1       -0.3005
      7 C          59.7310   95.1135   -0.8726 C.ar    1  UNL1        0.1416
      8 N          58.3695   95.7368   -0.9615 N.ar    1  UNL1       -0.2279
      9 C          57.7162   95.2459   -2.2194 C.ar    1  UNL1        0.1125
     10 C          58.6740   94.3192   -2.9078 C.ar    1  UNL1        0.1318
     11 C          60.8237   95.2306    0.1483 C.3     1  UNL1        0.1578
     12 C          56.3458   95.6165   -2.7038 C.ar    1  UNL1        0.0205
     13 C          55.1503   95.3713   -1.8316 C.ar    1  UNL1        0.0039
     14 C          53.7799   95.7419   -2.3160 C.ar    1  UNL1        0.0297
     15 C          53.6050   96.3577   -3.6725 C.ar    1  UNL1        0.1401
     16 F          52.2346   96.7284   -4.1569 F       1  UNL1       -0.2042
     17 C          54.8005   96.6029   -4.5446 C.ar    1  UNL1        0.0297
     18 C          56.1709   96.2323   -4.0603 C.ar    1  UNL1        0.0039
     19 C          63.9466   92.7252    1.6701 C.3     1  UNL1        0.0249
     20 C          64.4782   93.8296    0.8054 C.3     1  UNL1        0.1089
     21 C          65.0098   94.9339   -0.0593 C.3     1  UNL1        0.0249
     22 N          65.7591   93.0704    0.6234 N.3     1  UNL1       -0.3164
     23 H          66.3903   93.6064    0.0278 H       1  UNL1        0.1192
     24 H          65.5617   92.1702    0.1864 H       1  UNL1        0.1192
     25 N          58.4295   93.6005   -4.2015 N.pl3   1  UNL1       -0.2980
     26 H          58.9715   93.8162   -4.9945 H       1  UNL1        0.1536
     27 C          57.3593   92.5530   -4.2870 C.ar    1  UNL1        0.0495
     28 C          56.9624   91.7844   -3.0615 C.ar    1  UNL1        0.0169
     29 C          55.8920   90.7369   -3.1471 C.ar    1  UNL1        0.0309
     30 C          55.2187   90.4580   -4.4581 C.ar    1  UNL1        0.1402
     31 F          54.1484   89.4106   -4.5436 F       1  UNL1       -0.2042
     32 C          55.6156   91.2266   -5.6836 C.ar    1  UNL1        0.0309
     33 C          56.6858   92.2740   -5.5980 C.ar    1  UNL1        0.0169
@<TRIPOS>BOND
     1    19    20    1
     2    20    21    1
     3    20    22    1
     4    20     1    1
     5     1     2    2
     6     1     3   am
     7     3     4    1
     8     4     5    1
     9     5     6    1
    10     6     7   ar
    11     7     8   ar
    12     8     9   ar
    13     9    12    1
    14    12    13   ar
    15    13    14   ar
    16    14    15   ar
    17    15    16    1
    18    15    17   ar
    19    17    18   ar
    20     9    10   ar
    21    10    25    1
    22    25    27    1
    23    27    28   ar
    24    28    29   ar
    25    29    30   ar
    26    30    31    1
    27    30    32   ar
    28    32    33   ar
    29     7    11    1
    30    11     3    1
    31    10     6   ar
    32    33    27   ar
    33    18    12   ar
    34    22    23    1
    35    22    24    1
    36    25    26    1
