@<TRIPOS>MOLECULE
*****
 27 30 0 0 0
SMALL
GASTEIGER

@<TRIPOS>ATOM
      1 C          63.9053   83.2518   14.6897 C.3     1  UNL1        0.0899
      2 N          63.3790   83.9548   13.4737 N.3     1  UNL1       -0.2661
      3 C          62.7380   83.1665   12.3702 C.3     1  UNL1        0.0772
      4 C          62.2117   83.8696   11.1542 C.3     1  UNL1        0.0465
      5 C          62.3266   85.3609   11.0415 C.ar    1  UNL1        0.0175
      6 C          61.9026   86.3222    9.9710 C.ar    1  UNL1        0.1697
      7 N          62.2817   87.7047   10.4127 N.ar    1  UNL1       -0.1617
      8 N          62.9400   87.5978   11.7563 N.ar    1  UNL1       -0.2327
      9 C          62.9677   86.1492   12.1449 C.ar    1  UNL1        0.0741
     10 C          63.4939   85.4461   13.3610 C.3     1  UNL1        0.1185
     11 C          63.4763   88.7390   12.5687 C.ar    1  UNL1        0.0824
     12 C          63.3831   90.1414   12.0449 C.ar    1  UNL1        0.0189
     13 C          63.9195   91.2826   12.8573 C.ar    1  UNL1       -0.0011
     14 C          64.5490   91.0213   14.1935 C.ar    1  UNL1       -0.0022
     15 C          64.6422   89.6188   14.7173 C.ar    1  UNL1       -0.0011
     16 C          64.1058   88.4777   13.9049 C.ar    1  UNL1        0.0189
     17 C          65.0853   92.1625   15.0059 C.3     1  UNL1        0.1201
     18 N          66.5664   92.3393   15.1647 N.am    1  UNL1       -0.2754
     19 C          67.3100   92.4234   16.4647 C.3     1  UNL1        0.0942
     20 C          68.7670   92.5991   16.1548 C.3     1  UNL1        0.0311
     21 C          68.9239   92.6237   14.6632 C.3     1  UNL1        0.0870
     22 C          67.5639   92.4631   14.0513 C.2     1  UNL1        0.2259
     23 O          67.2555   92.4318   12.5837 O.2     1  UNL1       -0.2749
     24 C          61.2195   85.9640    8.6845 C.3     1  UNL1        0.4362
     25 F          60.5363   85.6057    7.3980 F       1  UNL1       -0.1644
     26 F          59.9108   86.4310    9.2494 F       1  UNL1       -0.1644
     27 F          62.5283   85.4970    8.1196 F       1  UNL1       -0.1644
@<TRIPOS>BOND
     1     1     2    1
     2     2     3    1
     3     3     4    1
     4     4     5    1
     5     5     6   ar
     6     6    24    1
     7    24    25    1
     8    24    26    1
     9    24    27    1
    10     6     7   ar
    11     7     8   ar
    12     8    11    1
    13    11    12   ar
    14    12    13   ar
    15    13    14   ar
    16    14    17    1
    17    17    18    1
    18    18    19    1
    19    19    20    1
    20    20    21    1
    21    21    22    1
    22    22    23    2
    23    14    15   ar
    24    15    16   ar
    25     8     9   ar
    26     9    10    1
    27    10     2    1
    28     9     5   ar
    29    16    11   ar
    30    22    18   am
@<TRIPOS>MOLECULE
*****
 27 30 0 0 0
SMALL
GASTEIGER

@<TRIPOS>ATOM
      1 C          60.0184   89.2184    8.2393 C.3     1  UNL1        0.0899
      2 N          60.6357   88.1247    9.0595 N.3     1  UNL1       -0.2661
      3 C          60.3583   86.6890    8.7255 C.3     1  UNL1        0.0772
      4 C          60.9756   85.5953    9.5457 C.3     1  UNL1        0.0465
      5 C          61.8703   85.9374   10.7000 C.ar    1  UNL1        0.0175
      6 C          62.6149   85.0810   11.6810 C.ar    1  UNL1        0.1697
      7 N          63.3525   85.9875   12.6213 N.ar    1  UNL1       -0.1617
      8 N          63.0638   87.4041   12.2215 N.ar    1  UNL1       -0.2327
      9 C          62.1478   87.3731   11.0340 C.ar    1  UNL1        0.0741
     10 C          61.5305   88.4668   10.2138 C.3     1  UNL1        0.1185
     11 C          63.5975   88.6356   12.8914 C.ar    1  UNL1        0.0824
     12 C          63.4713   89.9701   12.2182 C.ar    1  UNL1        0.0189
     13 C          64.0049   91.2014   12.8882 C.ar    1  UNL1       -0.0011
     14 C          64.6648   91.0983   14.2313 C.ar    1  UNL1       -0.0022
     15 C          64.7910   89.7638   14.9045 C.ar    1  UNL1       -0.0011
     16 C          64.2573   88.5324   14.2345 C.ar    1  UNL1        0.0189
     17 C          65.1984   92.3297   14.9013 C.3     1  UNL1        0.1201
     18 N          66.6750   92.4886   15.1126 N.am    1  UNL1       -0.2754
     19 C          67.3596   92.6968   16.4309 C.3     1  UNL1        0.0942
     20 C          68.8339   92.8040   16.1758 C.3     1  UNL1        0.0311
     21 C          69.0603   92.6620   14.6998 C.3     1  UNL1        0.0870
     22 C          67.7261   92.4670   14.0427 C.2     1  UNL1        0.2259
     23 O          67.4852   92.2829   12.5737 O.2     1  UNL1       -0.2749
     24 C          62.6207   83.5815   11.7155 C.3     1  UNL1        0.4362
     25 F          62.6266   82.0818   11.7502 F       1  UNL1       -0.1644
     26 F          62.0497   83.6112   13.1023 F       1  UNL1       -0.1644
     27 F          63.1917   83.5517   10.3288 F       1  UNL1       -0.1644
@<TRIPOS>BOND
     1     1     2    1
     2     2     3    1
     3     3     4    1
     4     4     5    1
     5     5     6   ar
     6     6    24    1
     7    24    25    1
     8    24    26    1
     9    24    27    1
    10     6     7   ar
    11     7     8   ar
    12     8    11    1
    13    11    12   ar
    14    12    13   ar
    15    13    14   ar
    16    14    17    1
    17    17    18    1
    18    18    19    1
    19    19    20    1
    20    20    21    1
    21    21    22    1
    22    22    23    2
    23    14    15   ar
    24    15    16   ar
    25     8     9   ar
    26     9    10    1
    27    10     2    1
    28     9     5   ar
    29    16    11   ar
    30    22    18   am
@<TRIPOS>MOLECULE
*****
 27 30 0 0 0
SMALL
GASTEIGER

@<TRIPOS>ATOM
      1 C          65.3459   95.1539    9.5093 C.3     1  UNL1        0.0899
      2 N          65.5724   94.4046   10.7889 N.3     1  UNL1       -0.2661
      3 C          66.4842   94.9694   11.8374 C.3     1  UNL1        0.0772
      4 C          66.7107   94.2201   13.1170 C.3     1  UNL1        0.0465
      5 C          66.0253   92.9061   13.3481 C.ar    1  UNL1        0.0175
      6 C          66.0550   91.9476   14.5015 C.ar    1  UNL1        0.1697
      7 N          65.1615   90.7905   14.1658 N.ar    1  UNL1       -0.1617
      8 N          64.5795   91.0337   12.8049 N.ar    1  UNL1       -0.2327
      9 C          65.1134   92.3413   12.2995 C.ar    1  UNL1        0.0741
     10 C          64.8870   93.0906   11.0199 C.3     1  UNL1        0.1185
     11 C          63.6304   90.1285   12.0772 C.ar    1  UNL1        0.0824
     12 C          62.8942   90.6283   10.8696 C.ar    1  UNL1        0.0189
     13 C          61.9451   89.7230   10.1420 C.ar    1  UNL1       -0.0011
     14 C          61.7322   88.3179   10.6218 C.ar    1  UNL1       -0.0022
     15 C          62.4683   87.8180   11.8293 C.ar    1  UNL1       -0.0011
     16 C          63.4174   88.7233   12.5570 C.ar    1  UNL1        0.0189
     17 C          60.7830   87.4126    9.8940 C.3     1  UNL1        0.1201
     18 N          61.2993   86.4690    8.8485 N.am    1  UNL1       -0.2754
     19 C          62.6581   85.8340    8.8275 C.3     1  UNL1        0.0942
     20 C          62.7458   84.9673    7.6064 C.3     1  UNL1        0.0311
     21 C          61.4413   85.0667    6.8727 C.3     1  UNL1        0.0870
     22 C          60.5472   85.9948    7.6404 C.2     1  UNL1        0.2259
     23 O          59.1470   86.3809    7.2657 O.2     1  UNL1       -0.2749
     24 C          66.8404   92.1167   15.7682 C.3     1  UNL1        0.4362
     25 F          67.6258   92.2857   17.0350 F       1  UNL1       -0.1644
     26 F          68.0563   91.5602   15.0886 F       1  UNL1       -0.1644
     27 F          65.6245   92.6731   16.4478 F       1  UNL1       -0.1644
@<TRIPOS>BOND
     1     1     2    1
     2     2     3    1
     3     3     4    1
     4     4     5    1
     5     5     6   ar
     6     6    24    1
     7    24    25    1
     8    24    26    1
     9    24    27    1
    10     6     7   ar
    11     7     8   ar
    12     8    11    1
    13    11    12   ar
    14    12    13   ar
    15    13    14   ar
    16    14    17    1
    17    17    18    1
    18    18    19    1
    19    19    20    1
    20    20    21    1
    21    21    22    1
    22    22    23    2
    23    14    15   ar
    24    15    16   ar
    25     8     9   ar
    26     9    10    1
    27    10     2    1
    28     9     5   ar
    29    16    11   ar
    30    22    18   am
@<TRIPOS>MOLECULE
*****
 27 30 0 0 0
SMALL
GASTEIGER

@<TRIPOS>ATOM
      1 C          63.1542   83.7624   13.0081 C.3     1  UNL1        0.0899
      2 N          63.3946   85.2275   13.2216 N.3     1  UNL1       -0.2661
      3 C          64.2486   85.6886   14.3652 C.3     1  UNL1        0.0772
      4 C          64.4890   87.1538   14.5787 C.3     1  UNL1        0.0465
      5 C          63.8752   88.1578   13.6486 C.ar    1  UNL1        0.0175
      6 C          63.9340   89.6561   13.6084 C.ar    1  UNL1        0.1697
      7 N          63.1163   90.1210   12.4400 N.ar    1  UNL1       -0.1617
      8 N          62.5521   88.9101   11.7580 N.ar    1  UNL1       -0.2327
      9 C          63.0211   87.6967   12.5050 C.ar    1  UNL1        0.0741
     10 C          62.7808   86.2316   12.2915 C.3     1  UNL1        0.1185
     11 C          61.6731   88.9120   10.5425 C.ar    1  UNL1        0.0824
     12 C          61.6473   87.7189    9.6337 C.ar    1  UNL1        0.0189
     13 C          60.7683   87.7210    8.4183 C.ar    1  UNL1       -0.0011
     14 C          59.9153   88.9161    8.1115 C.ar    1  UNL1       -0.0022
     15 C          59.9411   90.1092    9.0203 C.ar    1  UNL1       -0.0011
     16 C          60.8201   90.1071   10.2358 C.ar    1  UNL1        0.0189
     17 C          59.0363   88.9180    6.8960 C.3     1  UNL1        0.1201
     18 N          59.0449   90.0950    5.9661 N.am    1  UNL1       -0.2754
     19 C          60.2627   90.7558    5.3915 C.3     1  UNL1        0.0942
     20 C          59.8075   91.8870    4.5178 C.3     1  UNL1        0.0311
     21 C          58.3084   91.9252    4.5524 C.3     1  UNL1        0.0870
     22 C          57.8371   90.8176    5.4476 C.2     1  UNL1        0.2259
     23 O          56.4087   90.4903    5.7679 O.2     1  UNL1       -0.2749
     24 C          64.6797   90.5352   14.5682 C.3     1  UNL1        0.4362
     25 F          65.4255   91.4143   15.5280 F       1  UNL1       -0.1644
     26 F          65.6608   90.8824   13.4880 F       1  UNL1       -0.1644
     27 F          63.6986   90.1880   15.6485 F       1  UNL1       -0.1644
@<TRIPOS>BOND
     1     1     2    1
     2     2     3    1
     3     3     4    1
     4     4     5    1
     5     5     6   ar
     6     6    24    1
     7    24    25    1
     8    24    26    1
     9    24    27    1
    10     6     7   ar
    11     7     8   ar
    12     8    11    1
    13    11    12   ar
    14    12    13   ar
    15    13    14   ar
    16    14    17    1
    17    17    18    1
    18    18    19    1
    19    19    20    1
    20    20    21    1
    21    21    22    1
    22    22    23    2
    23    14    15   ar
    24    15    16   ar
    25     8     9   ar
    26     9    10    1
    27    10     2    1
    28     9     5   ar
    29    16    11   ar
    30    22    18   am
@<TRIPOS>MOLECULE
*****
 27 30 0 0 0
SMALL
GASTEIGER

@<TRIPOS>ATOM
      1 C          61.1647   89.3635    9.3935 C.3     1  UNL1        0.0899
      2 N          62.1185   89.8438   10.4469 N.3     1  UNL1       -0.2661
      3 C          62.6066   91.2620   10.4263 C.3     1  UNL1        0.0772
      4 C          63.5603   91.7423   11.4797 C.3     1  UNL1        0.0465
      5 C          64.0261   90.8044   12.5537 C.ar    1  UNL1        0.0175
      6 C          64.9563   90.9914   13.7154 C.ar    1  UNL1        0.1697
      7 N          65.0432   89.6887   14.4540 N.ar    1  UNL1       -0.1617
      8 N          64.1666   88.6966   13.7487 N.ar    1  UNL1       -0.2327
      9 C          63.5380   89.3862   12.5742 C.ar    1  UNL1        0.0741
     10 C          62.5842   88.9059   11.5209 C.3     1  UNL1        0.1185
     11 C          63.9557   87.2662   14.1478 C.ar    1  UNL1        0.0824
     12 C          63.5185   86.2590   13.1258 C.ar    1  UNL1        0.0189
     13 C          63.3076   84.8286   13.5250 C.ar    1  UNL1       -0.0011
     14 C          63.5339   84.4053   14.9461 C.ar    1  UNL1       -0.0022
     15 C          63.9712   85.4124   15.9681 C.ar    1  UNL1       -0.0011
     16 C          64.1821   86.8428   15.5689 C.ar    1  UNL1        0.0189
     17 C          63.3230   82.9748   15.3452 C.3     1  UNL1        0.1201
     18 N          62.8318   81.9792   14.3363 N.am    1  UNL1       -0.2754
     19 C          61.5291   81.2378   14.3913 C.3     1  UNL1        0.0942
     20 C          61.4494   80.3506   13.1844 C.3     1  UNL1        0.0311
     21 C          62.7030   80.5439   12.3835 C.3     1  UNL1        0.0870
     22 C          63.5574   81.5504   13.0955 C.2     1  UNL1        0.2259
     23 O          64.9013   82.0418   12.6456 O.2     1  UNL1       -0.2749
     24 C          65.6737   92.2585   14.0754 C.3     1  UNL1        0.4362
     25 F          66.3912   93.5258   14.4353 F       1  UNL1       -0.1644
     26 F          66.3190   92.2778   12.7214 F       1  UNL1       -0.1644
     27 F          65.0284   92.2393   15.4293 F       1  UNL1       -0.1644
@<TRIPOS>BOND
     1     1     2    1
     2     2     3    1
     3     3     4    1
     4     4     5    1
     5     5     6   ar
     6     6    24    1
     7    24    25    1
     8    24    26    1
     9    24    27    1
    10     6     7   ar
    11     7     8   ar
    12     8    11    1
    13    11    12   ar
    14    12    13   ar
    15    13    14   ar
    16    14    17    1
    17    17    18    1
    18    18    19    1
    19    19    20    1
    20    20    21    1
    21    21    22    1
    22    22    23    2
    23    14    15   ar
    24    15    16   ar
    25     8     9   ar
    26     9    10    1
    27    10     2    1
    28     9     5   ar
    29    16    11   ar
    30    22    18   am
@<TRIPOS>MOLECULE
*****
 27 30 0 0 0
SMALL
GASTEIGER

@<TRIPOS>ATOM
      1 C          63.7113   83.6986    9.4717 C.3     1  UNL1        0.0899
      2 N          62.8302   84.8628    9.1276 N.3     1  UNL1       -0.2661
      3 C          61.8877   84.7720    7.9643 C.3     1  UNL1        0.0772
      4 C          61.0067   85.9362    7.6202 C.3     1  UNL1        0.0465
      5 C          61.0681   87.1912    8.4395 C.ar    1  UNL1        0.0175
      6 C          60.3268   88.4915    8.3410 C.ar    1  UNL1        0.1697
      7 N          60.8112   89.3859    9.4435 N.ar    1  UNL1       -0.1617
      8 N          61.8518   88.6384   10.2234 N.ar    1  UNL1       -0.2327
      9 C          62.0106   87.2820    9.6028 C.ar    1  UNL1        0.0741
     10 C          62.8917   86.1178    9.9469 C.3     1  UNL1        0.1185
     11 C          62.6020   89.1563   11.4146 C.ar    1  UNL1        0.0824
     12 C          63.1422   88.1988   12.4351 C.ar    1  UNL1        0.0189
     13 C          63.8923   88.7168   13.6263 C.ar    1  UNL1       -0.0011
     14 C          64.1023   90.1922   13.7969 C.ar    1  UNL1       -0.0022
     15 C          63.5621   91.1497   12.7764 C.ar    1  UNL1       -0.0011
     16 C          62.8120   90.6317   11.5853 C.ar    1  UNL1        0.0189
     17 C          64.8525   90.7101   14.9882 C.3     1  UNL1        0.1201
     18 N          66.0763   91.5556   14.7944 N.am    1  UNL1       -0.2754
     19 C          67.0388   91.4640   13.6476 C.3     1  UNL1        0.0942
     20 C          68.1097   92.4930   13.8579 C.3     1  UNL1        0.0311
     21 C          67.8091   93.2206   15.1347 C.3     1  UNL1        0.0870
     22 C          66.5523   92.6412   15.7135 C.2     1  UNL1        0.2259
     23 O          65.8882   93.0719   16.9877 O.2     1  UNL1       -0.2749
     24 C          59.2842   88.8368    7.3194 C.3     1  UNL1        0.4362
     25 F          58.2415   89.1820    6.2977 F       1  UNL1       -0.1644
     26 F          58.4475   87.6813    7.7827 F       1  UNL1       -0.1644
     27 F          60.1209   89.9923    6.8560 F       1  UNL1       -0.1644
@<TRIPOS>BOND
     1     1     2    1
     2     2     3    1
     3     3     4    1
     4     4     5    1
     5     5     6   ar
     6     6    24    1
     7    24    25    1
     8    24    26    1
     9    24    27    1
    10     6     7   ar
    11     7     8   ar
    12     8    11    1
    13    11    12   ar
    14    12    13   ar
    15    13    14   ar
    16    14    17    1
    17    17    18    1
    18    18    19    1
    19    19    20    1
    20    20    21    1
    21    21    22    1
    22    22    23    2
    23    14    15   ar
    24    15    16   ar
    25     8     9   ar
    26     9    10    1
    27    10     2    1
    28     9     5   ar
    29    16    11   ar
    30    22    18   am
@<TRIPOS>MOLECULE
*****
 27 30 0 0 0
SMALL
GASTEIGER

@<TRIPOS>ATOM
      1 C          63.0613   85.0221    7.7997 C.3     1  UNL1        0.0899
      2 N          63.1001   84.4201    9.1731 N.3     1  UNL1       -0.2661
      3 C          62.9633   82.9364    9.3458 C.3     1  UNL1        0.0772
      4 C          63.0021   82.3345   10.7192 C.3     1  UNL1        0.0465
      5 C          63.1776   83.2162   11.9198 C.ar    1  UNL1        0.0175
      6 C          63.2531   82.9114   13.3866 C.ar    1  UNL1        0.1697
      7 N          63.4364   84.2068   14.1204 N.ar    1  UNL1       -0.1617
      8 N          63.4743   85.3122   13.1072 N.ar    1  UNL1       -0.2327
      9 C          63.3144   84.6999   11.7471 C.ar    1  UNL1        0.0741
     10 C          63.2756   85.3019   10.3738 C.3     1  UNL1        0.1185
     11 C          63.6426   86.7732   13.4022 C.ar    1  UNL1        0.0824
     12 C          63.1693   87.7973   12.4136 C.ar    1  UNL1        0.0189
     13 C          63.3376   89.2583   12.7087 C.ar    1  UNL1       -0.0011
     14 C          63.9792   89.6952   13.9922 C.ar    1  UNL1       -0.0022
     15 C          64.4524   88.6711   14.9808 C.ar    1  UNL1       -0.0011
     16 C          64.2841   87.2101   14.6857 C.ar    1  UNL1        0.0189
     17 C          64.1474   91.1563   14.2872 C.3     1  UNL1        0.1201
     18 N          65.4617   91.6728   14.7932 N.am    1  UNL1       -0.2754
     19 C          66.7799   91.5739   14.0843 C.3     1  UNL1        0.0942
     20 C          67.8213   92.2190   14.9500 C.3     1  UNL1        0.0311
     21 C          67.1466   92.7166   16.1938 C.3     1  UNL1        0.0870
     22 C          65.6883   92.3791   16.0969 C.2     1  UNL1        0.2259
     23 O          64.6406   92.6928   17.1236 O.2     1  UNL1       -0.2749
     24 C          63.1613   81.5502   14.0100 C.3     1  UNL1        0.4362
     25 F          63.0694   80.1890   14.6335 F       1  UNL1       -0.1644
     26 F          61.8434   81.9201   14.6235 F       1  UNL1       -0.1644
     27 F          64.4791   81.1803   13.3965 F       1  UNL1       -0.1644
@<TRIPOS>BOND
     1     1     2    1
     2     2     3    1
     3     3     4    1
     4     4     5    1
     5     5     6   ar
     6     6    24    1
     7    24    25    1
     8    24    26    1
     9    24    27    1
    10     6     7   ar
    11     7     8   ar
    12     8    11    1
    13    11    12   ar
    14    12    13   ar
    15    13    14   ar
    16    14    17    1
    17    17    18    1
    18    18    19    1
    19    19    20    1
    20    20    21    1
    21    21    22    1
    22    22    23    2
    23    14    15   ar
    24    15    16   ar
    25     8     9   ar
    26     9    10    1
    27    10     2    1
    28     9     5   ar
    29    16    11   ar
    30    22    18   am
@<TRIPOS>MOLECULE
*****
 27 30 0 0 0
SMALL
GASTEIGER

@<TRIPOS>ATOM
      1 C          63.7509   83.8214   12.3462 C.3     1  UNL1        0.0899
      2 N          62.9903   84.8870   11.6141 N.3     1  UNL1       -0.2661
      3 C          62.0501   84.5114   10.5074 C.3     1  UNL1        0.0772
      4 C          61.2896   85.5770    9.7752 C.3     1  UNL1        0.0465
      5 C          61.4691   87.0183   10.1499 C.ar    1  UNL1        0.0175
      6 C          60.8596   88.2787    9.6116 C.ar    1  UNL1        0.1697
      7 N          61.4231   89.4334   10.3857 N.ar    1  UNL1       -0.1617
      8 N          62.3808   88.8866   11.4024 N.ar    1  UNL1       -0.2327
      9 C          62.4093   87.3939   11.2566 C.ar    1  UNL1        0.0741
     10 C          63.1699   86.3283   11.9887 C.3     1  UNL1        0.1185
     11 C          63.1714   89.6912   12.3913 C.ar    1  UNL1        0.0824
     12 C          63.6213   89.0656   13.6782 C.ar    1  UNL1        0.0189
     13 C          64.4118   89.8702   14.6670 C.ar    1  UNL1       -0.0011
     14 C          64.7524   91.3003   14.3689 C.ar    1  UNL1       -0.0022
     15 C          64.3024   91.9258   13.0819 C.ar    1  UNL1       -0.0011
     16 C          63.5119   91.1212   12.0932 C.ar    1  UNL1        0.0189
     17 C          65.5429   92.1048   15.3577 C.3     1  UNL1        0.1201
     18 N          67.0311   92.2217   15.2107 N.am    1  UNL1       -0.2754
     19 C          68.0266   92.2723   16.3316 C.3     1  UNL1        0.0942
     20 C          69.3958   92.3904   15.7306 C.3     1  UNL1        0.0311
     21 C          69.2465   92.4128   14.2382 C.3     1  UNL1        0.0870
     22 C          67.7851   92.3085   13.9169 C.2     1  UNL1        0.2259
     23 O          67.1833   92.2936   12.5430 O.2     1  UNL1       -0.2749
     24 C          59.8618   88.3687    8.4953 C.3     1  UNL1        0.4362
     25 F          58.8640   88.4587    7.3788 F       1  UNL1       -0.1644
     26 F          60.5490   89.5985    7.9802 F       1  UNL1       -0.1644
     27 F          59.1746   87.1389    9.0104 F       1  UNL1       -0.1644
@<TRIPOS>BOND
     1     1     2    1
     2     2     3    1
     3     3     4    1
     4     4     5    1
     5     5     6   ar
     6     6    24    1
     7    24    25    1
     8    24    26    1
     9    24    27    1
    10     6     7   ar
    11     7     8   ar
    12     8    11    1
    13    11    12   ar
    14    12    13   ar
    15    13    14   ar
    16    14    17    1
    17    17    18    1
    18    18    19    1
    19    19    20    1
    20    20    21    1
    21    21    22    1
    22    22    23    2
    23    14    15   ar
    24    15    16   ar
    25     8     9   ar
    26     9    10    1
    27    10     2    1
    28     9     5   ar
    29    16    11   ar
    30    22    18   am
@<TRIPOS>MOLECULE
*****
 27 30 0 0 0
SMALL
GASTEIGER

@<TRIPOS>ATOM
      1 C          63.2259   81.9583   10.4015 C.3     1  UNL1        0.0899
      2 N          63.3477   83.2382   11.1741 N.3     1  UNL1       -0.2661
      3 C          64.1655   83.2807   12.4309 C.3     1  UNL1        0.0772
      4 C          64.2873   84.5606   13.2035 C.3     1  UNL1        0.0465
      5 C          63.5913   85.7980   12.7195 C.ar    1  UNL1        0.0175
      6 C          63.5287   87.1934   13.2662 C.ar    1  UNL1        0.1697
      7 N          62.6722   88.0134   12.3474 N.ar    1  UNL1       -0.1617
      8 N          62.2055   87.1247   11.2328 N.ar    1  UNL1       -0.2327
      9 C          62.7735   85.7556   11.4627 C.ar    1  UNL1        0.0741
     10 C          62.6517   84.4756   10.6901 C.3     1  UNL1        0.1185
     11 C          61.3253   87.5334   10.0890 C.ar    1  UNL1        0.0824
     12 C          60.8145   88.9410   10.0015 C.ar    1  UNL1        0.0189
     13 C          59.9343   89.3496    8.8577 C.ar    1  UNL1       -0.0011
     14 C          59.5648   88.3507    7.8015 C.ar    1  UNL1       -0.0022
     15 C          60.0756   86.9430    7.8891 C.ar    1  UNL1       -0.0011
     16 C          60.9558   86.5344    9.0328 C.ar    1  UNL1        0.0189
     17 C          58.6846   88.7594    6.6578 C.3     1  UNL1        0.1201
     18 N          59.0190   89.9802    5.8529 N.am    1  UNL1       -0.2754
     19 C          60.3970   90.4381    5.4766 C.3     1  UNL1        0.0942
     20 C          60.2636   91.6984    4.6743 C.3     1  UNL1        0.0311
     21 C          58.8033   92.0195    4.5547 C.3     1  UNL1        0.0870
     22 C          58.0340   90.9576    5.2832 C.2     1  UNL1        0.2259
     23 O          56.5419   90.8856    5.4182 O.2     1  UNL1       -0.2749
     24 C          64.2040   87.6829   14.5129 C.3     1  UNL1        0.4362
     25 F          64.8794   88.1724   15.7597 F       1  UNL1       -0.1644
     26 F          63.8602   86.3969   15.2042 F       1  UNL1       -0.1644
     27 F          64.5479   88.9690   13.8217 F       1  UNL1       -0.1644
@<TRIPOS>BOND
     1     1     2    1
     2     2     3    1
     3     3     4    1
     4     4     5    1
     5     5     6   ar
     6     6    24    1
     7    24    25    1
     8    24    26    1
     9    24    27    1
    10     6     7   ar
    11     7     8   ar
    12     8    11    1
    13    11    12   ar
    14    12    13   ar
    15    13    14   ar
    16    14    17    1
    17    17    18    1
    18    18    19    1
    19    19    20    1
    20    20    21    1
    21    21    22    1
    22    22    23    2
    23    14    15   ar
    24    15    16   ar
    25     8     9   ar
    26     9    10    1
    27    10     2    1
    28     9     5   ar
    29    16    11   ar
    30    22    18   am
