@<TRIPOS>MOLECULE
*****
 24 26 0 0 0
SMALL
GASTEIGER

@<TRIPOS>ATOM
      1 C          64.3839   91.2022   12.3248 C.ar    1  UNL1        0.0759
      2 C          63.9126   91.6747   10.9814 C.ar    1  UNL1        0.0168
      3 C          62.9808   90.8230   10.1714 C.ar    1  UNL1        0.0014
      4 C          62.5202   89.4988   10.7046 C.ar    1  UNL1        0.0023
      5 C          62.9915   89.0263   12.0480 C.ar    1  UNL1        0.0309
      6 C          63.9234   89.8780   12.8581 C.ar    1  UNL1        0.1533
      7 F          64.3947   89.4055   14.2014 F       1  UNL1       -0.2029
      8 C          61.5883   88.6471    9.8946 C.ar    1  UNL1        0.0002
      9 C          61.7191   87.1532    9.9260 C.ar    1  UNL1        0.0023
     10 C          60.7873   86.3015    9.1159 C.ar    1  UNL1        0.0296
     11 C          59.7246   86.9437    8.2744 C.ar    1  UNL1        0.1401
     12 F          58.7927   86.0920    7.4644 F       1  UNL1       -0.2042
     13 C          59.5937   88.4377    8.2430 C.ar    1  UNL1        0.0296
     14 C          60.5256   89.2894    9.0530 C.ar    1  UNL1        0.0023
     15 N          65.3158   92.0539   13.1348 N.pl3   1  UNL1       -0.3018
     16 C          67.2116   91.5814   14.8474 C.3     1  UNL1        0.0232
     17 C          65.7534   91.6011   14.4963 C.3     1  UNL1        0.0912
     18 C          65.8101   93.3584   12.5835 C.3     1  UNL1        0.1193
     19 C          66.6472   93.3776   11.3389 C.ar    1  UNL1        0.0168
     20 C          67.5077   92.1980   10.9955 C.ar    1  UNL1        0.0005
     21 C          68.3447   92.2173    9.7510 C.ar    1  UNL1        0.0204
     22 C          68.3213   93.4162    8.8498 C.ar    1  UNL1        0.0989
     23 N          67.4608   94.5958    9.1932 N.ar    1  UNL1       -0.2426
     24 C          66.6237   94.5765   10.4378 C.ar    1  UNL1        0.0962
@<TRIPOS>BOND
     1    16    17    1
     2    17    15    1
     3    15    18    1
     4    18    19    1
     5    19    20   ar
     6    20    21   ar
     7    21    22   ar
     8    22    23   ar
     9    23    24   ar
    10    15     1    1
    11     1     2   ar
    12     2     3   ar
    13     3     4   ar
    14     4     8    1
    15     8     9   ar
    16     9    10   ar
    17    10    11   ar
    18    11    12    1
    19    11    13   ar
    20    13    14   ar
    21     4     5   ar
    22     5     6   ar
    23     6     7    1
    24    24    19   ar
    25     6     1   ar
    26    14     8   ar
@<TRIPOS>MOLECULE
*****
 24 26 0 0 0
SMALL
GASTEIGER

@<TRIPOS>ATOM
      1 C          62.6747   89.7174   11.8015 C.ar    1  UNL1        0.0759
      2 C          63.1418   89.1371   13.1034 C.ar    1  UNL1        0.0168
      3 C          64.2614   89.7913   13.8574 C.ar    1  UNL1        0.0014
      4 C          64.9141   91.0256   13.3094 C.ar    1  UNL1        0.0023
      5 C          64.4470   91.6060   12.0074 C.ar    1  UNL1        0.0309
      6 C          63.3274   90.9518   11.2534 C.ar    1  UNL1        0.1533
      7 F          62.8603   91.5321    9.9515 F       1  UNL1       -0.2029
      8 C          66.0337   91.6798   14.0634 C.ar    1  UNL1        0.0002
      9 C          65.8062   92.1805   15.4589 C.ar    1  UNL1        0.0023
     10 C          66.9259   92.8347   16.2129 C.ar    1  UNL1        0.0296
     11 C          68.2730   92.9880   15.5713 C.ar    1  UNL1        0.1401
     12 F          69.3927   93.6422   16.3253 F       1  UNL1       -0.2042
     13 C          68.5006   92.4873   14.1758 C.ar    1  UNL1        0.0296
     14 C          67.3809   91.8331   13.4218 C.ar    1  UNL1        0.0023
     15 N          61.5551   89.0633   11.0475 N.pl3   1  UNL1       -0.3018
     16 C          59.4970   90.5971   11.4499 C.3     1  UNL1        0.0232
     17 C          60.1378   89.2420   11.5051 C.3     1  UNL1        0.0912
     18 C          61.8527   88.2305    9.8360 C.3     1  UNL1        0.1193
     19 C          62.3029   86.8085    9.9954 C.ar    1  UNL1        0.0168
     20 C          62.8069   86.0437    8.8076 C.ar    1  UNL1        0.0005
     21 C          63.2571   84.6218    8.9671 C.ar    1  UNL1        0.0204
     22 C          63.2033   83.9647   10.3144 C.ar    1  UNL1        0.0989
     23 N          62.6992   84.7295   11.5023 N.ar    1  UNL1       -0.2426
     24 C          62.2491   86.1514   11.3428 C.ar    1  UNL1        0.0962
@<TRIPOS>BOND
     1    16    17    1
     2    17    15    1
     3    15    18    1
     4    18    19    1
     5    19    20   ar
     6    20    21   ar
     7    21    22   ar
     8    22    23   ar
     9    23    24   ar
    10    15     1    1
    11     1     2   ar
    12     2     3   ar
    13     3     4   ar
    14     4     8    1
    15     8     9   ar
    16     9    10   ar
    17    10    11   ar
    18    11    12    1
    19    11    13   ar
    20    13    14   ar
    21     4     5   ar
    22     5     6   ar
    23     6     7    1
    24    24    19   ar
    25     6     1   ar
    26    14     8   ar
@<TRIPOS>MOLECULE
*****
 24 26 0 0 0
SMALL
GASTEIGER

@<TRIPOS>ATOM
      1 C          63.0109   89.8826   11.9182 C.ar    1  UNL1        0.0759
      2 C          63.4870   89.2755   13.2046 C.ar    1  UNL1        0.0168
      3 C          64.5944   89.9284   13.9775 C.ar    1  UNL1        0.0014
      4 C          65.2257   91.1884   13.4640 C.ar    1  UNL1        0.0023
      5 C          64.7496   91.7956   12.1776 C.ar    1  UNL1        0.0309
      6 C          63.6422   91.1427   11.4047 C.ar    1  UNL1        0.1533
      7 F          63.1661   91.7498   10.1184 F       1  UNL1       -0.2029
      8 C          66.3331   91.8414   14.2368 C.ar    1  UNL1        0.0002
      9 C          66.0655   92.4024   15.6019 C.ar    1  UNL1        0.0023
     10 C          67.1729   93.0554   16.3748 C.ar    1  UNL1        0.0296
     11 C          68.5479   93.1472   15.7826 C.ar    1  UNL1        0.1401
     12 F          69.6553   93.8001   16.5555 F       1  UNL1       -0.2042
     13 C          68.8156   92.5861   14.4174 C.ar    1  UNL1        0.0296
     14 C          67.7082   91.9332   13.6445 C.ar    1  UNL1        0.0023
     15 N          61.9035   89.2296   11.1454 N.pl3   1  UNL1       -0.3018
     16 C          59.6838   90.5094   11.5759 C.3     1  UNL1        0.0232
     17 C          60.5011   89.2557   11.6772 C.3     1  UNL1        0.0912
     18 C          62.1984   88.5507    9.8408 C.3     1  UNL1        0.1193
     19 C          61.0801   87.9648    9.0306 C.ar    1  UNL1        0.0168
     20 C          61.0257   86.4857    8.7867 C.ar    1  UNL1        0.0005
     21 C          59.9075   85.8999    7.9766 C.ar    1  UNL1        0.0204
     22 C          58.8438   86.7931    7.4102 C.ar    1  UNL1        0.0989
     23 N          58.8982   88.2721    7.6541 N.ar    1  UNL1       -0.2426
     24 C          60.0164   88.8579    8.4643 C.ar    1  UNL1        0.0962
@<TRIPOS>BOND
     1    16    17    1
     2    17    15    1
     3    15    18    1
     4    18    19    1
     5    19    20   ar
     6    20    21   ar
     7    21    22   ar
     8    22    23   ar
     9    23    24   ar
    10    15     1    1
    11     1     2   ar
    12     2     3   ar
    13     3     4   ar
    14     4     8    1
    15     8     9   ar
    16     9    10   ar
    17    10    11   ar
    18    11    12    1
    19    11    13   ar
    20    13    14   ar
    21     4     5   ar
    22     5     6   ar
    23     6     7    1
    24    24    19   ar
    25     6     1   ar
    26    14     8   ar
@<TRIPOS>MOLECULE
*****
 24 26 0 0 0
SMALL
GASTEIGER

@<TRIPOS>ATOM
      1 C          62.1305   88.5059   11.0969 C.ar    1  UNL1        0.0759
      2 C          63.0131   88.1443   12.2545 C.ar    1  UNL1        0.0168
      3 C          63.1955   86.7056   12.6378 C.ar    1  UNL1        0.0014
      4 C          62.4953   85.6285   11.8635 C.ar    1  UNL1        0.0023
      5 C          61.6126   85.9901   10.7058 C.ar    1  UNL1        0.0309
      6 C          61.4302   87.4288   10.3225 C.ar    1  UNL1        0.1533
      7 F          60.5475   87.7905    9.1649 F       1  UNL1       -0.2029
      8 C          62.6776   84.1899   12.2468 C.ar    1  UNL1        0.0002
      9 C          62.6202   83.7851   13.6900 C.ar    1  UNL1        0.0023
     10 C          62.8026   82.3464   14.0733 C.ar    1  UNL1        0.0296
     11 C          63.0424   81.3125   13.0134 C.ar    1  UNL1        0.1401
     12 F          63.2248   79.8738   13.3967 F       1  UNL1       -0.2042
     13 C          63.0999   81.7172   11.5701 C.ar    1  UNL1        0.0296
     14 C          62.9175   83.1559   11.1868 C.ar    1  UNL1        0.0023
     15 N          61.9481   89.9446   10.7135 N.pl3   1  UNL1       -0.3018
     16 C          59.6121   90.0572   11.8452 C.3     1  UNL1        0.0232
     17 C          60.6033   90.5939   10.8556 C.3     1  UNL1        0.0912
     18 C          63.1103   90.7339   10.1882 C.3     1  UNL1        0.1193
     19 C          64.0172   91.4571   11.1394 C.ar    1  UNL1        0.0168
     20 C          65.0870   92.3661   10.6111 C.ar    1  UNL1        0.0005
     21 C          65.9937   93.0892   11.5623 C.ar    1  UNL1        0.0204
     22 C          65.8306   92.9033   13.0418 C.ar    1  UNL1        0.0989
     23 N          64.7608   91.9943   13.5701 N.ar    1  UNL1       -0.2426
     24 C          63.8541   91.2712   12.6189 C.ar    1  UNL1        0.0962
@<TRIPOS>BOND
     1    16    17    1
     2    17    15    1
     3    15    18    1
     4    18    19    1
     5    19    20   ar
     6    20    21   ar
     7    21    22   ar
     8    22    23   ar
     9    23    24   ar
    10    15     1    1
    11     1     2   ar
    12     2     3   ar
    13     3     4   ar
    14     4     8    1
    15     8     9   ar
    16     9    10   ar
    17    10    11   ar
    18    11    12    1
    19    11    13   ar
    20    13    14   ar
    21     4     5   ar
    22     5     6   ar
    23     6     7    1
    24    24    19   ar
    25     6     1   ar
    26    14     8   ar
@<TRIPOS>MOLECULE
*****
 24 26 0 0 0
SMALL
GASTEIGER

@<TRIPOS>ATOM
      1 C          63.2901   85.9703   12.9699 C.ar    1  UNL1        0.0759
      2 C          62.4479   85.0674   12.1183 C.ar    1  UNL1        0.0168
      3 C          61.6540   85.6359   10.9796 C.ar    1  UNL1        0.0014
      4 C          61.7024   87.1074   10.6926 C.ar    1  UNL1        0.0023
      5 C          62.5447   88.0104   11.5442 C.ar    1  UNL1        0.0309
      6 C          63.3386   87.4418   12.6829 C.ar    1  UNL1        0.1533
      7 F          64.1808   88.3447   13.5345 F       1  UNL1       -0.2029
      8 C          60.9086   87.6759    9.5539 C.ar    1  UNL1        0.0002
      9 C          60.1591   86.7608    8.6316 C.ar    1  UNL1        0.0023
     10 C          59.3652   87.3293    7.4929 C.ar    1  UNL1        0.0296
     11 C          59.3209   88.8130    7.2765 C.ar    1  UNL1        0.1401
     12 F          58.5271   89.3815    6.1379 F       1  UNL1       -0.2042
     13 C          60.0705   89.7281    8.1989 C.ar    1  UNL1        0.0296
     14 C          60.8643   89.1596    9.3376 C.ar    1  UNL1        0.0023
     15 N          64.0840   85.4017   14.1086 N.pl3   1  UNL1       -0.3018
     16 C          63.3961   85.9814   16.5460 C.3     1  UNL1        0.0232
     17 C          64.2845   86.2064   15.3586 C.3     1  UNL1        0.0912
     18 C          64.6773   84.0286   13.9974 C.3     1  UNL1        0.1193
     19 C          63.7833   82.8376   13.8170 C.ar    1  UNL1        0.0168
     20 C          64.0213   81.8862   12.6822 C.ar    1  UNL1        0.0005
     21 C          63.1274   80.6953   12.5019 C.ar    1  UNL1        0.0204
     22 C          61.9954   80.4558   13.4565 C.ar    1  UNL1        0.0989
     23 N          61.7574   81.4073   14.5914 N.ar    1  UNL1       -0.2426
     24 C          62.6513   82.5982   14.7717 C.ar    1  UNL1        0.0962
@<TRIPOS>BOND
     1    16    17    1
     2    17    15    1
     3    15    18    1
     4    18    19    1
     5    19    20   ar
     6    20    21   ar
     7    21    22   ar
     8    22    23   ar
     9    23    24   ar
    10    15     1    1
    11     1     2   ar
    12     2     3   ar
    13     3     4   ar
    14     4     8    1
    15     8     9   ar
    16     9    10   ar
    17    10    11   ar
    18    11    12    1
    19    11    13   ar
    20    13    14   ar
    21     4     5   ar
    22     5     6   ar
    23     6     7    1
    24    24    19   ar
    25     6     1   ar
    26    14     8   ar
@<TRIPOS>MOLECULE
*****
 24 26 0 0 0
SMALL
GASTEIGER

@<TRIPOS>ATOM
      1 C          61.4995   89.5054   10.3489 C.ar    1  UNL1        0.0759
      2 C          62.6900   90.1648    9.7180 C.ar    1  UNL1        0.0168
      3 C          63.7030   90.8630   10.5760 C.ar    1  UNL1        0.0014
      4 C          63.5257   90.9018   12.0650 C.ar    1  UNL1        0.0023
      5 C          62.3352   90.2424   12.6959 C.ar    1  UNL1        0.0309
      6 C          61.3222   89.5442   11.8379 C.ar    1  UNL1        0.1533
      7 F          60.1317   88.8848   12.4688 F       1  UNL1       -0.2029
      8 C          64.5387   91.6000   12.9230 C.ar    1  UNL1        0.0002
      9 C          64.7352   91.1749   14.3480 C.ar    1  UNL1        0.0023
     10 C          65.7483   91.8731   15.2060 C.ar    1  UNL1        0.0296
     11 C          66.5649   92.9963   14.6391 C.ar    1  UNL1        0.1401
     12 F          67.5779   93.6945   15.4971 F       1  UNL1       -0.2042
     13 C          66.3684   93.4215   13.2140 C.ar    1  UNL1        0.0296
     14 C          65.3553   92.7233   12.3560 C.ar    1  UNL1        0.0023
     15 N          60.4865   88.8072    9.4908 N.pl3   1  UNL1       -0.3018
     16 C          59.4095   88.8477    7.1268 C.3     1  UNL1        0.0232
     17 C          59.7897   89.5557    8.3933 C.3     1  UNL1        0.0912
     18 C          60.1702   87.3607    9.7302 C.3     1  UNL1        0.1193
     19 C          61.2739   86.3451    9.7512 C.ar    1  UNL1        0.0168
     20 C          62.0033   86.0038    8.4857 C.ar    1  UNL1        0.0005
     21 C          63.1070   84.9883    8.5067 C.ar    1  UNL1        0.0204
     22 C          63.4813   84.3140    9.7932 C.ar    1  UNL1        0.0989
     23 N          62.7520   84.6552   11.0587 N.ar    1  UNL1       -0.2426
     24 C          61.6483   85.6707   11.0377 C.ar    1  UNL1        0.0962
@<TRIPOS>BOND
     1    16    17    1
     2    17    15    1
     3    15    18    1
     4    18    19    1
     5    19    20   ar
     6    20    21   ar
     7    21    22   ar
     8    22    23   ar
     9    23    24   ar
    10    15     1    1
    11     1     2   ar
    12     2     3   ar
    13     3     4   ar
    14     4     8    1
    15     8     9   ar
    16     9    10   ar
    17    10    11   ar
    18    11    12    1
    19    11    13   ar
    20    13    14   ar
    21     4     5   ar
    22     5     6   ar
    23     6     7    1
    24    24    19   ar
    25     6     1   ar
    26    14     8   ar
@<TRIPOS>MOLECULE
*****
 24 26 0 0 0
SMALL
GASTEIGER

@<TRIPOS>ATOM
      1 C          62.5220   88.6273   11.4571 C.ar    1  UNL1        0.0759
      2 C          63.1939   88.1450   12.7084 C.ar    1  UNL1        0.0168
      3 C          64.1025   89.0616   13.4729 C.ar    1  UNL1        0.0014
      4 C          64.3391   90.4604   12.9860 C.ar    1  UNL1        0.0023
      5 C          63.6672   90.9428   11.7346 C.ar    1  UNL1        0.0309
      6 C          62.7587   90.0262   10.9701 C.ar    1  UNL1        0.1533
      7 F          62.0868   90.5085    9.7188 F       1  UNL1       -0.2029
      8 C          65.2477   91.3770   13.7505 C.ar    1  UNL1        0.0002
      9 C          66.2784   92.1890   13.0236 C.ar    1  UNL1        0.0023
     10 C          67.1869   93.1055   13.7881 C.ar    1  UNL1        0.0296
     11 C          67.0648   93.2102   15.2794 C.ar    1  UNL1        0.1401
     12 F          67.9734   94.1267   16.0439 F       1  UNL1       -0.2042
     13 C          66.0341   92.3982   16.0064 C.ar    1  UNL1        0.0296
     14 C          65.1255   91.4816   15.2419 C.ar    1  UNL1        0.0023
     15 N          61.6135   87.7107   10.6926 N.pl3   1  UNL1       -0.3018
     16 C          60.3766   87.1643    8.4741 C.3     1  UNL1        0.0232
     17 C          61.0081   88.1639    9.3971 C.3     1  UNL1        0.0912
     18 C          61.3102   86.3410   11.2236 C.3     1  UNL1        0.1193
     19 C          62.3262   85.2449   11.0950 C.ar    1  UNL1        0.0168
     20 C          62.8362   84.8500    9.7408 C.ar    1  UNL1        0.0005
     21 C          63.8520   83.7539    9.6123 C.ar    1  UNL1        0.0204
     22 C          64.3579   83.0527   10.8380 C.ar    1  UNL1        0.0989
     23 N          63.8479   83.4475   12.1922 N.ar    1  UNL1       -0.2426
     24 C          62.8320   84.5436   12.3207 C.ar    1  UNL1        0.0962
@<TRIPOS>BOND
     1    16    17    1
     2    17    15    1
     3    15    18    1
     4    18    19    1
     5    19    20   ar
     6    20    21   ar
     7    21    22   ar
     8    22    23   ar
     9    23    24   ar
    10    15     1    1
    11     1     2   ar
    12     2     3   ar
    13     3     4   ar
    14     4     8    1
    15     8     9   ar
    16     9    10   ar
    17    10    11   ar
    18    11    12    1
    19    11    13   ar
    20    13    14   ar
    21     4     5   ar
    22     5     6   ar
    23     6     7    1
    24    24    19   ar
    25     6     1   ar
    26    14     8   ar
@<TRIPOS>MOLECULE
*****
 24 26 0 0 0
SMALL
GASTEIGER

@<TRIPOS>ATOM
      1 C          63.1187   87.9677   12.3307 C.ar    1  UNL1        0.0759
      2 C          62.2977   87.1839   11.3502 C.ar    1  UNL1        0.0168
      3 C          62.1631   85.6978   11.5035 C.ar    1  UNL1        0.0014
      4 C          62.8496   84.9955   12.6373 C.ar    1  UNL1        0.0023
      5 C          63.6707   85.7793   13.6179 C.ar    1  UNL1        0.0309
      6 C          63.8053   87.2654   13.4646 C.ar    1  UNL1        0.1533
      7 F          64.6264   88.0492   14.4451 F       1  UNL1       -0.2029
      8 C          62.7150   83.5095   12.7905 C.ar    1  UNL1        0.0002
      9 C          62.2673   82.9279   14.0987 C.ar    1  UNL1        0.0023
     10 C          62.1327   81.4418   14.2519 C.ar    1  UNL1        0.0296
     11 C          62.4458   80.5373   13.0971 C.ar    1  UNL1        0.1401
     12 F          62.3112   79.0513   13.2503 F       1  UNL1       -0.2042
     13 C          62.8935   81.1189   11.7888 C.ar    1  UNL1        0.0296
     14 C          63.0281   82.6050   11.6356 C.ar    1  UNL1        0.0023
     15 N          63.2533   89.4537   12.1775 N.pl3   1  UNL1       -0.3018
     16 C          61.9073   90.6777   10.3227 C.3     1  UNL1        0.0232
     17 C          63.1904   90.0759   10.8140 C.3     1  UNL1        0.0912
     18 C          63.4509   90.3177   13.3876 C.3     1  UNL1        0.1193
     19 C          64.6857   91.1598   13.5145 C.ar    1  UNL1        0.0168
     20 C          65.6349   90.9324   14.6535 C.ar    1  UNL1        0.0005
     21 C          66.8696   91.7745   14.7803 C.ar    1  UNL1        0.0204
     22 C          67.1552   92.8441   13.7681 C.ar    1  UNL1        0.0989
     23 N          66.2061   93.0715   12.6291 N.ar    1  UNL1       -0.2426
     24 C          64.9713   92.2294   12.5023 C.ar    1  UNL1        0.0962
@<TRIPOS>BOND
     1    16    17    1
     2    17    15    1
     3    15    18    1
     4    18    19    1
     5    19    20   ar
     6    20    21   ar
     7    21    22   ar
     8    22    23   ar
     9    23    24   ar
    10    15     1    1
    11     1     2   ar
    12     2     3   ar
    13     3     4   ar
    14     4     8    1
    15     8     9   ar
    16     9    10   ar
    17    10    11   ar
    18    11    12    1
    19    11    13   ar
    20    13    14   ar
    21     4     5   ar
    22     5     6   ar
    23     6     7    1
    24    24    19   ar
    25     6     1   ar
    26    14     8   ar
@<TRIPOS>MOLECULE
*****
 24 26 0 0 0
SMALL
GASTEIGER

@<TRIPOS>ATOM
      1 C          63.7805   88.4617   13.5146 C.ar    1  UNL1        0.0759
      2 C          64.3190   87.4516   14.4840 C.ar    1  UNL1        0.0168
      3 C          64.1305   85.9866   14.2228 C.ar    1  UNL1        0.0014
      4 C          63.4035   85.5317   12.9921 C.ar    1  UNL1        0.0023
      5 C          62.8650   86.5418   12.0227 C.ar    1  UNL1        0.0309
      6 C          63.0535   88.0068   12.2839 C.ar    1  UNL1        0.1533
      7 F          62.5150   89.0168   11.3145 F       1  UNL1       -0.2029
      8 C          63.2150   84.0667   12.7309 C.ar    1  UNL1        0.0002
      9 C          62.6081   83.1889   13.7850 C.ar    1  UNL1        0.0023
     10 C          62.4196   81.7239   13.5237 C.ar    1  UNL1        0.0296
     11 C          62.8380   81.1367   12.2085 C.ar    1  UNL1        0.1401
     12 F          62.6495   79.6717   11.9472 F       1  UNL1       -0.2042
     13 C          63.4450   82.0145   11.1543 C.ar    1  UNL1        0.0296
     14 C          63.6335   83.4795   11.4155 C.ar    1  UNL1        0.0023
     15 N          63.9690   89.9267   13.7758 N.pl3   1  UNL1       -0.3018
     16 C          63.5064   90.5135   16.2642 C.3     1  UNL1        0.0232
     17 C          64.4615   90.3927   15.1139 C.3     1  UNL1        0.0912
     18 C          63.6650   90.9257   12.6991 C.3     1  UNL1        0.1193
     19 C          64.7372   91.8563   12.2149 C.ar    1  UNL1        0.0168
     20 C          64.7985   92.2412   10.7665 C.ar    1  UNL1        0.0005
     21 C          65.8707   93.1718   10.2824 C.ar    1  UNL1        0.0204
     22 C          66.8817   93.7175   11.2468 C.ar    1  UNL1        0.0989
     23 N          66.8205   93.3326   12.6953 N.ar    1  UNL1       -0.2426
     24 C          65.7482   92.4021   13.1793 C.ar    1  UNL1        0.0962
@<TRIPOS>BOND
     1    16    17    1
     2    17    15    1
     3    15    18    1
     4    18    19    1
     5    19    20   ar
     6    20    21   ar
     7    21    22   ar
     8    22    23   ar
     9    23    24   ar
    10    15     1    1
    11     1     2   ar
    12     2     3   ar
    13     3     4   ar
    14     4     8    1
    15     8     9   ar
    16     9    10   ar
    17    10    11   ar
    18    11    12    1
    19    11    13   ar
    20    13    14   ar
    21     4     5   ar
    22     5     6   ar
    23     6     7    1
    24    24    19   ar
    25     6     1   ar
    26    14     8   ar
