@<TRIPOS>MOLECULE
*****
 24 26 0 0 0
SMALL
GASTEIGER

@<TRIPOS>ATOM
      1 C          66.6597   93.0564   11.2802 C.ar    1  UNL1        0.1384
      2 C          67.0184   92.8301   12.7190 C.ar    1  UNL1        0.0369
      3 C          66.1049   92.0344   13.6035 C.ar    1  UNL1        0.0025
      4 C          64.8326   91.4651   13.0493 C.ar    1  UNL1       -0.0077
      5 C          64.4739   91.6914   11.6105 C.ar    1  UNL1       -0.0154
      6 C          65.3874   92.4871   10.7260 C.ar    1  UNL1        0.0329
      7 C          63.1628   91.0118   11.3472 C.3     1  UNL1        0.0481
      8 C          62.7112   90.3655   12.6233 C.2     1  UNL1       -0.0421
      9 C          63.7433   90.6456   13.6752 C.2     1  UNL1       -0.0246
     10 C          68.2842   93.1835    9.2567 C.3     1  UNL1        0.2525
     11 O          67.5732   93.8521   10.3957 O.3     1  UNL1       -0.4714
     12 C          63.6945   90.1868   15.1024 C.3     1  UNL1        0.0634
     13 C          63.6426   91.1941   16.2127 C.3     1  UNL1        0.0111
     14 C          63.6976   88.7208   15.4195 C.ar    1  UNL1        0.0818
     15 C          63.0689   88.2265   16.6886 C.ar    1  UNL1        0.1139
     16 N          63.0721   86.7603   17.0056 N.ar    1  UNL1       -0.2394
     17 C          63.7040   85.7885   16.0536 C.ar    1  UNL1        0.1195
     18 C          64.3327   86.2827   14.7846 C.ar    1  UNL1        0.1191
     19 N          64.3295   87.7488   14.4676 N.ar    1  UNL1       -0.2446
     20 C          61.4492   89.5774   12.8140 C.3     1  UNL1        0.0394
     21 C          60.4021   89.5668   11.7400 C.3     1  UNL1        0.0765
     22 N          60.5340   88.6338   10.5730 N.3     1  UNL1       -0.2700
     23 C          60.3879   89.1565    9.1746 C.3     1  UNL1        0.0897
     24 C          60.8120   87.1781   10.8044 C.3     1  UNL1        0.0897
@<TRIPOS>BOND
     1    10    11    1
     2    11     1    1
     3     1     2   ar
     4     2     3   ar
     5     3     4   ar
     6     4     5   ar
     7     5     6   ar
     8     5     7    1
     9     7     8    1
    10     8    20    1
    11    20    21    1
    12    21    22    1
    13    22    23    1
    14    22    24    1
    15     8     9    2
    16     9    12    1
    17    12    13    1
    18    12    14    1
    19    14    15   ar
    20    15    16   ar
    21    16    17   ar
    22    17    18   ar
    23    18    19   ar
    24     6     1   ar
    25    19    14   ar
    26     9     4    1
@<TRIPOS>MOLECULE
*****
 24 26 0 0 0
SMALL
GASTEIGER

@<TRIPOS>ATOM
      1 C          66.2539   93.2799   11.3963 C.ar    1  UNL1        0.1384
      2 C          65.1411   92.9535   10.4450 C.ar    1  UNL1        0.0369
      3 C          64.1485   91.8834   10.7908 C.ar    1  UNL1        0.0025
      4 C          64.2687   91.1397   12.0878 C.ar    1  UNL1       -0.0077
      5 C          65.3815   91.4661   13.0391 C.ar    1  UNL1       -0.0154
      6 C          66.3741   92.5362   12.6934 C.ar    1  UNL1        0.0329
      7 C          65.2464   90.5710   14.2353 C.3     1  UNL1        0.0481
      8 C          64.0500   89.6914   14.0231 C.2     1  UNL1       -0.0421
      9 C          63.4458   90.0428   12.6959 C.2     1  UNL1       -0.0246
     10 C          67.2620   94.9416    9.6723 C.3     1  UNL1        0.2525
     11 O          67.2465   94.3501   11.0506 O.3     1  UNL1       -0.4714
     12 C          62.2318   89.4088   12.0843 C.3     1  UNL1        0.0634
     13 C          60.9017   90.0966   12.1719 C.3     1  UNL1        0.0111
     14 C          62.3478   88.0869   11.3849 C.ar    1  UNL1        0.0818
     15 C          62.1956   88.0109    9.8946 C.ar    1  UNL1        0.1139
     16 N          62.3117   86.6889    9.1952 N.ar    1  UNL1       -0.2394
     17 C          62.5799   85.4430    9.9863 C.ar    1  UNL1        0.1195
     18 C          62.7320   85.5190   11.4766 C.ar    1  UNL1        0.1191
     19 N          62.6160   86.8409   12.1759 N.ar    1  UNL1       -0.2446
     20 C          63.5463   88.6441   14.9716 C.3     1  UNL1        0.0394
     21 C          64.2698   87.3362   15.0978 C.3     1  UNL1        0.0765
     22 N          63.6089   86.1765   15.7821 N.3     1  UNL1       -0.2700
     23 C          63.5790   84.8317   15.1182 C.3     1  UNL1        0.0897
     24 C          62.9778   86.3615   17.1302 C.3     1  UNL1        0.0897
@<TRIPOS>BOND
     1    10    11    1
     2    11     1    1
     3     1     2   ar
     4     2     3   ar
     5     3     4   ar
     6     4     5   ar
     7     5     6   ar
     8     5     7    1
     9     7     8    1
    10     8    20    1
    11    20    21    1
    12    21    22    1
    13    22    23    1
    14    22    24    1
    15     8     9    2
    16     9    12    1
    17    12    13    1
    18    12    14    1
    19    14    15   ar
    20    15    16   ar
    21    16    17   ar
    22    17    18   ar
    23    18    19   ar
    24     6     1   ar
    25    19    14   ar
    26     9     4    1
@<TRIPOS>MOLECULE
*****
 24 26 0 0 0
SMALL
GASTEIGER

@<TRIPOS>ATOM
      1 C          60.9339   86.7135    9.5264 C.ar    1  UNL1        0.1384
      2 C          61.3652   86.0343   10.7923 C.ar    1  UNL1        0.0369
      3 C          62.1879   86.7800   11.8008 C.ar    1  UNL1        0.0025
      4 C          62.5793   88.2049   11.5434 C.ar    1  UNL1       -0.0077
      5 C          62.1481   88.8842   10.2775 C.ar    1  UNL1       -0.0154
      6 C          61.3254   88.1384    9.2690 C.ar    1  UNL1        0.0329
      7 C          62.6815   90.2860   10.2986 C.3     1  UNL1        0.0481
      8 C          63.4424   90.4731   11.5777 C.2     1  UNL1       -0.0421
      9 C          63.3792   89.1870   12.3470 C.2     1  UNL1       -0.0246
     10 C          59.0296   86.6782    7.7594 C.3     1  UNL1        0.2525
     11 O          60.1113   85.9678    8.5179 O.3     1  UNL1       -0.4714
     12 C          64.0060   88.9282   13.6850 C.3     1  UNL1        0.0634
     13 C          64.2539   87.5197   14.1373 C.3     1  UNL1        0.0111
     14 C          64.3848   90.0779   14.5707 C.ar    1  UNL1        0.0818
     15 C          63.4215   90.5753   15.6074 C.ar    1  UNL1        0.1139
     16 N          63.8005   91.7251   16.4932 N.ar    1  UNL1       -0.2394
     17 C          65.1427   92.3775   16.3422 C.ar    1  UNL1        0.1195
     18 C          66.1060   91.8801   15.3055 C.ar    1  UNL1        0.1191
     19 N          65.7271   90.7304   14.4198 N.ar    1  UNL1       -0.2446
     20 C          64.1434   91.7264   12.0114 C.3     1  UNL1        0.0394
     21 C          64.8163   92.5996   10.9942 C.3     1  UNL1        0.0765
     22 N          66.1841   93.1516   11.2669 N.3     1  UNL1       -0.2700
     23 C          66.3783   94.1756   12.3457 C.3     1  UNL1        0.0897
     24 C          67.3577   92.6796   10.4609 C.3     1  UNL1        0.0897
@<TRIPOS>BOND
     1    10    11    1
     2    11     1    1
     3     1     2   ar
     4     2     3   ar
     5     3     4   ar
     6     4     5   ar
     7     5     6   ar
     8     5     7    1
     9     7     8    1
    10     8    20    1
    11    20    21    1
    12    21    22    1
    13    22    23    1
    14    22    24    1
    15     8     9    2
    16     9    12    1
    17    12    13    1
    18    12    14    1
    19    14    15   ar
    20    15    16   ar
    21    16    17   ar
    22    17    18   ar
    23    18    19   ar
    24     6     1   ar
    25    19    14   ar
    26     9     4    1
@<TRIPOS>MOLECULE
*****
 24 26 0 0 0
SMALL
GASTEIGER

@<TRIPOS>ATOM
      1 C          60.9437   89.6854   10.0777 C.ar    1  UNL1        0.1384
      2 C          60.6463   89.1308   11.4393 C.ar    1  UNL1        0.0369
      3 C          61.5553   89.4426   12.5911 C.ar    1  UNL1        0.0025
      4 C          62.7616   90.3089   12.3813 C.ar    1  UNL1       -0.0077
      5 C          63.0590   90.8636   11.0197 C.ar    1  UNL1       -0.0154
      6 C          62.1501   90.5518    9.8680 C.ar    1  UNL1        0.0329
      7 C          64.3125   91.6820   11.1162 C.3     1  UNL1        0.0481
      8 C          64.7897   91.6330   12.5374 C.2     1  UNL1       -0.0421
      9 C          63.8312   90.7845   13.3193 C.2     1  UNL1       -0.0246
     10 C          59.8051   87.9492    8.5160 C.3     1  UNL1        0.2525
     11 O          60.0348   89.3737    8.9259 O.3     1  UNL1       -0.4714
     12 C          63.9258   90.4672   14.7823 C.3     1  UNL1        0.0634
     13 C          64.1363   91.5701   15.7769 C.3     1  UNL1        0.0111
     14 C          63.8098   89.0470   15.2507 C.ar    1  UNL1        0.0818
     15 C          63.1137   88.7379   16.5430 C.ar    1  UNL1        0.1139
     16 N          62.9978   87.3175   17.0114 N.ar    1  UNL1       -0.2394
     17 C          63.5779   86.2064   16.1876 C.ar    1  UNL1        0.1195
     18 C          64.2740   86.5154   14.8953 C.ar    1  UNL1        0.1191
     19 N          64.3899   87.9357   14.4269 N.ar    1  UNL1       -0.2446
     20 C          66.0110   92.3133   13.0813 C.3     1  UNL1        0.0394
     21 C          66.4337   93.6449   12.5353 C.3     1  UNL1        0.0765
     22 N          66.9964   93.7423   11.1483 N.3     1  UNL1       -0.2700
     23 C          66.8709   95.0222   10.3762 C.3     1  UNL1        0.0897
     24 C          67.6846   92.5599   10.5333 C.3     1  UNL1        0.0897
@<TRIPOS>BOND
     1    10    11    1
     2    11     1    1
     3     1     2   ar
     4     2     3   ar
     5     3     4   ar
     6     4     5   ar
     7     5     6   ar
     8     5     7    1
     9     7     8    1
    10     8    20    1
    11    20    21    1
    12    21    22    1
    13    22    23    1
    14    22    24    1
    15     8     9    2
    16     9    12    1
    17    12    13    1
    18    12    14    1
    19    14    15   ar
    20    15    16   ar
    21    16    17   ar
    22    17    18   ar
    23    18    19   ar
    24     6     1   ar
    25    19    14   ar
    26     9     4    1
@<TRIPOS>MOLECULE
*****
 24 26 0 0 0
SMALL
GASTEIGER

@<TRIPOS>ATOM
      1 C          60.6151   88.0497    9.1814 C.ar    1  UNL1        0.1384
      2 C          60.7288   86.6963    8.5447 C.ar    1  UNL1        0.0369
      3 C          61.5075   85.6101    9.2257 C.ar    1  UNL1        0.0025
      4 C          62.1726   85.8772   10.5433 C.ar    1  UNL1       -0.0077
      5 C          62.0589   87.2306   11.1801 C.ar    1  UNL1       -0.0154
      6 C          61.2802   88.3168   10.4991 C.ar    1  UNL1        0.0329
      7 C          62.8166   87.1991   12.4743 C.3     1  UNL1        0.0481
      8 C          63.3985   85.8262   12.6375 C.2     1  UNL1       -0.0421
      9 C          63.0005   85.0093   11.4440 C.2     1  UNL1       -0.0246
     10 C          59.3925   88.9618    7.0783 C.3     1  UNL1        0.2525
     11 O          59.8364   89.1359    8.5005 O.3     1  UNL1       -0.4714
     12 C          63.3662   83.5760   11.1950 C.3     1  UNL1        0.0634
     13 C          64.2406   83.2165   10.0305 C.3     1  UNL1        0.0111
     14 C          62.8574   82.5022   12.1105 C.ar    1  UNL1        0.0818
     15 C          62.9854   81.0599   11.7188 C.ar    1  UNL1        0.1139
     16 N          62.4766   79.9861   12.6343 N.ar    1  UNL1       -0.2394
     17 C          61.8399   80.3546   13.9415 C.ar    1  UNL1        0.1195
     18 C          61.7119   81.7969   14.3332 C.ar    1  UNL1        0.1191
     19 N          62.2207   82.8706   13.4177 N.ar    1  UNL1       -0.2446
     20 C          64.2321   85.3533   13.7914 C.3     1  UNL1        0.0394
     21 C          64.4427   86.2445   14.9794 C.3     1  UNL1        0.0765
     22 N          63.3921   86.3331   16.0463 N.3     1  UNL1       -0.2700
     23 C          62.5456   85.1368   16.3665 C.3     1  UNL1        0.0897
     24 C          63.1879   87.6179   16.7929 C.3     1  UNL1        0.0897
@<TRIPOS>BOND
     1    10    11    1
     2    11     1    1
     3     1     2   ar
     4     2     3   ar
     5     3     4   ar
     6     4     5   ar
     7     5     6   ar
     8     5     7    1
     9     7     8    1
    10     8    20    1
    11    20    21    1
    12    21    22    1
    13    22    23    1
    14    22    24    1
    15     8     9    2
    16     9    12    1
    17    12    13    1
    18    12    14    1
    19    14    15   ar
    20    15    16   ar
    21    16    17   ar
    22    17    18   ar
    23    18    19   ar
    24     6     1   ar
    25    19    14   ar
    26     9     4    1
@<TRIPOS>MOLECULE
*****
 24 26 0 0 0
SMALL
GASTEIGER

@<TRIPOS>ATOM
      1 C          60.9583   88.4697    9.4332 C.ar    1  UNL1        0.1384
      2 C          61.2110   89.9034    9.7946 C.ar    1  UNL1        0.0369
      3 C          62.0520   90.2384   10.9905 C.ar    1  UNL1        0.0025
      4 C          62.6405   89.1397   11.8251 C.ar    1  UNL1       -0.0077
      5 C          62.3878   87.7060   11.4637 C.ar    1  UNL1       -0.0154
      6 C          61.5467   87.3710   10.2678 C.ar    1  UNL1        0.0329
      7 C          63.0947   86.8435   12.4671 C.3     1  UNL1        0.0481
      8 C          63.7841   87.7443   13.4485 C.2     1  UNL1       -0.0421
      9 C          63.5034   89.1634   13.0518 C.2     1  UNL1       -0.0246
     10 C          59.4437   86.7977    8.1447 C.3     1  UNL1        0.2525
     11 O          60.1173   88.1347    8.2372 O.3     1  UNL1       -0.4714
     12 C          63.9987   90.3907   13.7577 C.3     1  UNL1        0.0634
     13 C          63.5736   90.6668   15.1695 C.3     1  UNL1        0.0111
     14 C          64.9191   91.3418   13.0520 C.ar    1  UNL1        0.0818
     15 C          66.2439   91.6945   13.6609 C.ar    1  UNL1        0.1139
     16 N          67.1643   92.6458   12.9551 N.ar    1  UNL1       -0.2394
     17 C          66.7599   93.2443   11.6405 C.ar    1  UNL1        0.1195
     18 C          65.4352   92.8916   11.0316 C.ar    1  UNL1        0.1191
     19 N          64.5149   91.9404   11.7374 N.ar    1  UNL1       -0.2446
     20 C          64.6095   87.3033   14.6209 C.3     1  UNL1        0.0394
     21 C          64.4773   85.9051   15.1477 C.3     1  UNL1        0.0765
     22 N          63.2531   85.5062   15.9172 N.3     1  UNL1       -0.2700
     23 C          62.4063   84.3638   15.4397 C.3     1  UNL1        0.0897
     24 C          62.8757   86.2495   17.1641 C.3     1  UNL1        0.0897
@<TRIPOS>BOND
     1    10    11    1
     2    11     1    1
     3     1     2   ar
     4     2     3   ar
     5     3     4   ar
     6     4     5   ar
     7     5     6   ar
     8     5     7    1
     9     7     8    1
    10     8    20    1
    11    20    21    1
    12    21    22    1
    13    22    23    1
    14    22    24    1
    15     8     9    2
    16     9    12    1
    17    12    13    1
    18    12    14    1
    19    14    15   ar
    20    15    16   ar
    21    16    17   ar
    22    17    18   ar
    23    18    19   ar
    24     6     1   ar
    25    19    14   ar
    26     9     4    1
@<TRIPOS>MOLECULE
*****
 24 26 0 0 0
SMALL
GASTEIGER

@<TRIPOS>ATOM
      1 C          63.4812   82.6215   13.1385 C.ar    1  UNL1        0.1384
      2 C          62.6524   82.8150   11.9033 C.ar    1  UNL1        0.0369
      3 C          62.3592   84.1995   11.4061 C.ar    1  UNL1        0.0025
      4 C          62.8949   85.3905   12.1440 C.ar    1  UNL1       -0.0077
      5 C          63.7238   85.1970   13.3792 C.ar    1  UNL1       -0.0154
      6 C          64.0169   83.8125   13.8764 C.ar    1  UNL1        0.0329
      7 C          64.1131   86.5514   13.8931 C.3     1  UNL1        0.0481
      8 C          63.5249   87.5820   12.9755 C.2     1  UNL1       -0.0421
      9 C          62.7720   86.8645   11.8946 C.2     1  UNL1       -0.0246
     10 C          62.6565   80.2540   13.8202 C.3     1  UNL1        0.2525
     11 O          63.7744   81.2370   13.6357 O.3     1  UNL1       -0.4714
     12 C          62.0270   87.5080   10.7629 C.3     1  UNL1        0.0634
     13 C          62.2763   87.0637    9.3520 C.3     1  UNL1        0.0111
     14 C          61.0327   88.5959   11.0419 C.ar    1  UNL1        0.0818
     15 C          61.1371   89.9094   10.3250 C.ar    1  UNL1        0.1139
     16 N          60.1427   90.9973   10.6041 N.ar    1  UNL1       -0.2394
     17 C          59.0439   90.7716   11.6000 C.ar    1  UNL1        0.1195
     18 C          58.9395   89.4581   12.3168 C.ar    1  UNL1        0.1191
     19 N          59.9339   88.3703   12.0378 N.ar    1  UNL1       -0.2446
     20 C          63.6649   89.0690   13.1145 C.3     1  UNL1        0.0394
     21 C          62.8304   89.8105   14.1164 C.3     1  UNL1        0.0765
     22 N          63.3896   90.1253   15.4721 N.3     1  UNL1       -0.2700
     23 C          64.2736   91.3226   15.6593 C.3     1  UNL1        0.0897
     24 C          63.0648   89.2427   16.6407 C.3     1  UNL1        0.0897
@<TRIPOS>BOND
     1    10    11    1
     2    11     1    1
     3     1     2   ar
     4     2     3   ar
     5     3     4   ar
     6     4     5   ar
     7     5     6   ar
     8     5     7    1
     9     7     8    1
    10     8    20    1
    11    20    21    1
    12    21    22    1
    13    22    23    1
    14    22    24    1
    15     8     9    2
    16     9    12    1
    17    12    13    1
    18    12    14    1
    19    14    15   ar
    20    15    16   ar
    21    16    17   ar
    22    17    18   ar
    23    18    19   ar
    24     6     1   ar
    25    19    14   ar
    26     9     4    1
@<TRIPOS>MOLECULE
*****
 24 26 0 0 0
SMALL
GASTEIGER

@<TRIPOS>ATOM
      1 C          61.1478   87.2567    9.2898 C.ar    1  UNL1        0.1384
      2 C          61.4339   85.8991    9.8599 C.ar    1  UNL1        0.0369
      3 C          62.2207   85.7698   11.1305 C.ar    1  UNL1        0.0025
      4 C          62.7214   86.9980   11.8309 C.ar    1  UNL1       -0.0077
      5 C          62.4353   88.3556   11.2608 C.ar    1  UNL1       -0.0154
      6 C          61.6485   88.4850    9.9903 C.ar    1  UNL1        0.0329
      7 C          63.0539   89.3787   12.1668 C.3     1  UNL1        0.0481
      8 C          63.7223   88.6533   13.2969 C.2     1  UNL1       -0.0421
      9 C          63.5167   87.1820   13.0893 C.2     1  UNL1       -0.0246
     10 C          59.0029   86.7586    7.9110 C.3     1  UNL1        0.2525
     11 O          60.3610   87.3861    8.0193 O.3     1  UNL1       -0.4714
     12 C          64.0185   86.0868   13.9831 C.3     1  UNL1        0.0634
     13 C          64.9040   86.4162   15.1482 C.3     1  UNL1        0.0111
     14 C          63.6348   84.6624   13.7119 C.ar    1  UNL1        0.0818
     15 C          62.4574   84.0557   14.4159 C.ar    1  UNL1        0.1139
     16 N          62.0738   82.6311   14.1447 N.ar    1  UNL1       -0.2394
     17 C          62.8675   81.8133   13.1694 C.ar    1  UNL1        0.1195
     18 C          64.0449   82.4200   12.4654 C.ar    1  UNL1        0.1191
     19 N          64.4285   83.8445   12.7366 N.ar    1  UNL1       -0.2446
     20 C          64.4656   89.2877   14.4349 C.3     1  UNL1        0.0394
     21 C          64.2035   90.7197   14.7964 C.3     1  UNL1        0.0765
     22 N          65.2058   91.7781   14.4429 N.3     1  UNL1       -0.2700
     23 C          65.9668   92.4823   15.5268 C.3     1  UNL1        0.0897
     24 C          65.4472   92.1322   13.0054 C.3     1  UNL1        0.0897
@<TRIPOS>BOND
     1    10    11    1
     2    11     1    1
     3     1     2   ar
     4     2     3   ar
     5     3     4   ar
     6     4     5   ar
     7     5     6   ar
     8     5     7    1
     9     7     8    1
    10     8    20    1
    11    20    21    1
    12    21    22    1
    13    22    23    1
    14    22    24    1
    15     8     9    2
    16     9    12    1
    17    12    13    1
    18    12    14    1
    19    14    15   ar
    20    15    16   ar
    21    16    17   ar
    22    17    18   ar
    23    18    19   ar
    24     6     1   ar
    25    19    14   ar
    26     9     4    1
@<TRIPOS>MOLECULE
*****
 24 26 0 0 0
SMALL
GASTEIGER

@<TRIPOS>ATOM
      1 C          63.9826   84.5511   13.7750 C.ar    1  UNL1        0.1384
      2 C          64.5652   85.2885   14.9441 C.ar    1  UNL1        0.0369
      3 C          64.5306   86.7877   14.9781 C.ar    1  UNL1        0.0025
      4 C          63.9134   87.5496   13.8430 C.ar    1  UNL1       -0.0077
      5 C          63.3308   86.8122   12.6739 C.ar    1  UNL1       -0.0154
      6 C          63.3654   85.3130   12.6399 C.ar    1  UNL1        0.0329
      7 C          62.7928   87.8259   11.7079 C.3     1  UNL1        0.0481
      8 C          63.0429   89.1897   12.2800 C.2     1  UNL1       -0.0421
      9 C          63.7355   89.0189   13.5996 C.2     1  UNL1       -0.0246
     10 C          64.0053   82.3310   12.4257 C.3     1  UNL1        0.2525
     11 O          64.0172   83.0519   13.7410 O.3     1  UNL1       -0.4714
     12 C          64.1733   90.1236   14.5150 C.3     1  UNL1        0.0634
     13 C          63.5792   90.2402   15.8874 C.3     1  UNL1        0.0111
     14 C          65.2052   91.1117   14.0582 C.ar    1  UNL1        0.0818
     15 C          66.6040   91.0376   14.5948 C.ar    1  UNL1        0.1139
     16 N          67.6359   92.0258   14.1379 N.ar    1  UNL1       -0.2394
     17 C          67.2690   93.0880   13.1443 C.ar    1  UNL1        0.1195
     18 C          65.8703   93.1621   12.6077 C.ar    1  UNL1        0.1191
     19 N          64.8384   92.1739   13.0646 N.ar    1  UNL1       -0.2446
     20 C          62.6666   90.4952   11.6443 C.3     1  UNL1        0.0394
     21 C          61.9610   90.5090   10.3206 C.3     1  UNL1        0.0765
     22 N          60.5348   90.0542   10.2263 N.3     1  UNL1       -0.2700
     23 C          59.5437   90.4716   11.2721 C.3     1  UNL1        0.0897
     24 C          60.0995   89.1822    9.0861 C.3     1  UNL1        0.0897
@<TRIPOS>BOND
     1    10    11    1
     2    11     1    1
     3     1     2   ar
     4     2     3   ar
     5     3     4   ar
     6     4     5   ar
     7     5     6   ar
     8     5     7    1
     9     7     8    1
    10     8    20    1
    11    20    21    1
    12    21    22    1
    13    22    23    1
    14    22    24    1
    15     8     9    2
    16     9    12    1
    17    12    13    1
    18    12    14    1
    19    14    15   ar
    20    15    16   ar
    21    16    17   ar
    22    17    18   ar
    23    18    19   ar
    24     6     1   ar
    25    19    14   ar
    26     9     4    1
