@<TRIPOS>MOLECULE
*****
 38 42 0 0 0
SMALL
GASTEIGER

@<TRIPOS>ATOM
      1 C          62.8589   89.9672   12.6408 C.ar    1  UNL1        0.0360
      2 S          63.4187   90.9264   11.6326 S.2     1  UNL1       -0.0718
      3 C          64.4672   91.7552   12.3136 C.ar    1  UNL1        0.0983
      4 C          64.5555   91.3082   13.7426 C.ar    1  UNL1        0.0830
      5 C          63.5614   90.2031   13.9449 C.ar    1  UNL1        0.0639
      6 C          65.5295   91.9652   14.6752 C.ar    1  UNL1        0.2663
      7 O          65.6177   91.5181   16.1043 O.2     1  UNL1       -0.2668
      8 N          66.4153   93.0691   14.1787 N.ar    1  UNL1       -0.2467
      9 C          67.3894   93.7260   15.1113 C.3     1  UNL1        0.1382
     10 C          66.3271   93.5161   12.7496 C.ar    1  UNL1        0.3342
     11 O          67.2129   94.6201   12.2530 O.2     1  UNL1       -0.2462
     12 N          65.3531   92.8592   11.8170 N.ar    1  UNL1       -0.2757
     13 C          63.3135   89.4639   15.2263 C.2     1  UNL1        0.2495
     14 O          62.7227   90.1812   16.4037 O.2     1  UNL1       -0.2699
     15 N          63.6564   88.0073   15.3302 N.am    1  UNL1       -0.2735
     16 C          64.2498   87.1614   14.2429 C.3     1  UNL1        0.0964
     17 C          64.4263   85.7722   14.7804 C.3     1  UNL1        0.0525
     18 C          63.9420   85.7595   16.2000 C.3     1  UNL1        0.1320
     19 O          63.9348   84.5737   17.1186 O.3     1  UNL1       -0.3827
     20 C          63.4662   87.1409   16.5398 C.3     1  UNL1        0.1228
     21 H          63.5715   84.8338   17.9795 H       1  UNL1        0.2104
     22 C          61.7851   88.9506   12.3891 C.3     1  UNL1        0.1420
     23 C          60.7345   89.2038    9.9442 C.ar    1  UNL1        0.1982
     24 N          60.7202   88.3610    8.7035 N.ar    1  UNL1       -0.2138
     25 C          61.4950   87.1080    8.9852 C.ar    1  UNL1        0.0999
     26 C          61.8152   85.9136    8.1362 C.ar    1  UNL1        0.0207
     27 C          62.6287   84.7876    8.7021 C.ar    1  UNL1        0.0016
     28 C          63.1220   84.8559   10.1170 C.ar    1  UNL1        0.0016
     29 C          62.8018   86.0503   10.9660 C.ar    1  UNL1        0.0188
     30 C          61.9883   87.1763   10.4001 C.ar    1  UNL1        0.0802
     31 N          61.5183   88.4716   10.9928 N.ar    1  UNL1       -0.2950
     32 C          59.2777   90.8410   11.3398 C.3     1  UNL1        0.1108
     33 N          60.0800   90.5435   10.1077 N.pl3   1  UNL1       -0.3026
     34 H          60.1769   91.2276    9.4064 H       1  UNL1        0.1496
     35 C          65.2649   93.3062   10.3879 C.3     1  UNL1        0.1109
     36 C          66.5174   93.5664    9.6047 C.3     1  UNL1        0.0228
     37 C          67.6039   92.5331    9.5625 C.3     1  UNL1        0.0020
     38 C          66.6835   94.8600    8.8638 C.3     1  UNL1        0.0020
@<TRIPOS>BOND
     1    32    33    1
     2    33    23    1
     3    23    24   ar
     4    24    25   ar
     5    25    26   ar
     6    26    27   ar
     7    27    28   ar
     8    28    29   ar
     9    29    30   ar
    10    30    31   ar
    11    31    22    1
    12    22     1    1
    13     1     2   ar
    14     2     3   ar
    15     3     4   ar
    16     4     5   ar
    17     5    13    1
    18    13    14    2
    19    13    15   am
    20    15    16    1
    21    16    17    1
    22    17    18    1
    23    18    19    1
    24    18    20    1
    25     4     6   ar
    26     6     7    2
    27     6     8   ar
    28     8     9    1
    29     8    10   ar
    30    10    11    2
    31    10    12   ar
    32    12    35    1
    33    35    36    1
    34    36    37    1
    35    36    38    1
    36    31    23   ar
    37     5     1   ar
    38    20    15    1
    39    30    25   ar
    40    12     3   ar
    41    33    34    1
    42    19    21    1
@<TRIPOS>MOLECULE
*****
 38 42 0 0 0
SMALL
GASTEIGER

@<TRIPOS>ATOM
      1 C          62.9600   86.8430   12.0147 C.ar    1  UNL1        0.0360
      2 S          62.3698   86.0447   10.8903 S.2     1  UNL1       -0.0718
      3 C          61.5725   86.9778   10.0280 C.ar    1  UNL1        0.0983
      4 C          61.6699   88.3528   10.6194 C.ar    1  UNL1        0.0830
      5 C          62.5274   88.2695   11.8473 C.ar    1  UNL1        0.0639
      6 C          60.9651   89.5030    9.9634 C.ar    1  UNL1        0.2663
      7 O          61.0626   90.8780   10.5549 O.2     1  UNL1       -0.2668
      8 N          60.1629   89.2783    8.7161 N.ar    1  UNL1       -0.2467
      9 C          59.4582   90.4285    8.0601 C.3     1  UNL1        0.1382
     10 C          60.0655   87.9033    8.1246 C.ar    1  UNL1        0.3342
     11 O          59.2633   87.6784    6.8773 O.2     1  UNL1       -0.2462
     12 N          60.7702   86.7530    8.7806 N.ar    1  UNL1       -0.2757
     13 C          62.8890   89.4122   12.7493 C.2     1  UNL1        0.2495
     14 O          62.4305   89.4142   14.1775 O.2     1  UNL1       -0.2699
     15 N          63.7089   90.5527   12.2232 N.am    1  UNL1       -0.2735
     16 C          64.2361   90.6885   10.8255 C.3     1  UNL1        0.0964
     17 C          64.9987   91.9774   10.7408 C.3     1  UNL1        0.0525
     18 C          64.9427   92.6383   12.0862 C.3     1  UNL1        0.1320
     19 O          65.5731   93.9495   12.4513 O.3     1  UNL1       -0.3827
     20 C          64.1456   91.7578   13.0023 C.3     1  UNL1        0.1228
     21 H          65.3876   94.1493   13.3822 H       1  UNL1        0.2104
     22 C          63.8300   86.3088   13.1136 C.3     1  UNL1        0.1420
     23 C          63.1228   85.1013   15.3911 C.ar    1  UNL1        0.1982
     24 N          62.6967   83.7134   15.7678 N.ar    1  UNL1       -0.2138
     25 C          62.6934   82.8757   14.5236 C.ar    1  UNL1        0.0999
     26 C          62.3590   81.4330   14.2857 C.ar    1  UNL1        0.0207
     27 C          62.4487   80.8605   12.9022 C.ar    1  UNL1        0.0016
     28 C          62.8729   81.7308   11.7564 C.ar    1  UNL1        0.0016
     29 C          63.2072   83.1735   11.9943 C.ar    1  UNL1        0.0188
     30 C          63.1175   83.7460   13.3778 C.ar    1  UNL1        0.0802
     31 N          63.3829   85.1215   13.9140 N.ar    1  UNL1       -0.2950
     32 C          62.4743   86.3022   17.6019 C.3     1  UNL1        0.1108
     33 N          63.2641   86.2649   16.3272 N.pl3   1  UNL1       -0.3026
     34 H          63.8752   87.0041   16.1050 H       1  UNL1        0.1496
     35 C          60.6728   85.3780    8.1891 C.3     1  UNL1        0.1109
     36 C          61.7450   84.8811    7.2654 C.3     1  UNL1        0.0228
     37 C          63.1819   84.9202    7.6942 C.3     1  UNL1        0.0020
     38 C          61.3803   84.3451    5.9127 C.3     1  UNL1        0.0020
@<TRIPOS>BOND
     1    32    33    1
     2    33    23    1
     3    23    24   ar
     4    24    25   ar
     5    25    26   ar
     6    26    27   ar
     7    27    28   ar
     8    28    29   ar
     9    29    30   ar
    10    30    31   ar
    11    31    22    1
    12    22     1    1
    13     1     2   ar
    14     2     3   ar
    15     3     4   ar
    16     4     5   ar
    17     5    13    1
    18    13    14    2
    19    13    15   am
    20    15    16    1
    21    16    17    1
    22    17    18    1
    23    18    19    1
    24    18    20    1
    25     4     6   ar
    26     6     7    2
    27     6     8   ar
    28     8     9    1
    29     8    10   ar
    30    10    11    2
    31    10    12   ar
    32    12    35    1
    33    35    36    1
    34    36    37    1
    35    36    38    1
    36    31    23   ar
    37     5     1   ar
    38    20    15    1
    39    30    25   ar
    40    12     3   ar
    41    33    34    1
    42    19    21    1
@<TRIPOS>MOLECULE
*****
 38 42 0 0 0
SMALL
GASTEIGER

@<TRIPOS>ATOM
      1 C          63.4784   90.0520   12.7630 C.ar    1  UNL1        0.0360
      2 S          63.8249   89.1925   13.9424 S.2     1  UNL1       -0.0718
      3 C          63.5952   87.7613   13.5566 C.ar    1  UNL1        0.0983
      4 C          63.1066   87.7363   12.1387 C.ar    1  UNL1        0.0830
      5 C          63.0344   89.1520   11.6482 C.ar    1  UNL1        0.0639
      6 C          62.7905   86.4276   11.4772 C.ar    1  UNL1        0.2663
      7 O          62.3019   86.4026   10.0593 O.2     1  UNL1       -0.2668
      8 N          62.9631   85.1439   12.2338 N.ar    1  UNL1       -0.2467
      9 C          62.6470   83.8352   11.5724 C.3     1  UNL1        0.1382
     10 C          63.4517   85.1689   13.6518 C.ar    1  UNL1        0.3342
     11 O          63.6242   83.8853   14.4084 O.2     1  UNL1       -0.2462
     12 N          63.7677   86.4776   14.3132 N.ar    1  UNL1       -0.2757
     13 C          62.5953   89.5907   10.2826 C.2     1  UNL1        0.2495
     14 O          63.4346   90.5559    9.4990 O.2     1  UNL1       -0.2699
     15 N          61.3170   89.0642    9.7007 N.am    1  UNL1       -0.2735
     16 C          60.3786   88.0990   10.3624 C.3     1  UNL1        0.0964
     17 C          59.2342   87.8488    9.4256 C.3     1  UNL1        0.0525
     18 C          59.4653   88.6593    8.1847 C.3     1  UNL1        0.1320
     19 O          58.5669   88.7098    6.9846 O.3     1  UNL1       -0.3827
     20 C          60.7525   89.4105    8.3548 C.3     1  UNL1        0.1228
     21 H          58.9454   89.3092    6.3224 H       1  UNL1        0.2104
     22 C          63.5612   91.5487   12.7080 C.3     1  UNL1        0.1420
     23 C          65.6849   92.8885   11.7914 C.ar    1  UNL1        0.1982
     24 N          66.9356   93.4430   12.4065 N.ar    1  UNL1       -0.2138
     25 C          66.9087   93.1305   13.8733 C.ar    1  UNL1        0.0999
     26 C          67.8744   93.4301   14.9813 C.ar    1  UNL1        0.0207
     27 C          67.5728   92.9822   16.3807 C.ar    1  UNL1        0.0016
     28 C          66.3055   92.2345   16.6722 C.ar    1  UNL1        0.0016
     29 C          65.3398   91.9349   15.5642 C.ar    1  UNL1        0.0188
     30 C          65.6414   92.3829   14.1648 C.ar    1  UNL1        0.0802
     31 N          64.8851   92.2333   12.8782 N.ar    1  UNL1       -0.2950
     32 C          66.0597   93.8798    9.4194 C.3     1  UNL1        0.1108
     33 N          65.3014   92.9741   10.3438 N.pl3   1  UNL1       -0.3026
     34 H          64.5520   92.4358   10.0004 H       1  UNL1        0.1496
     35 C          64.2563   86.5026   15.7311 C.3     1  UNL1        0.1109
     36 C          63.3220   86.8873   16.8397 C.3     1  UNL1        0.0228
     37 C          62.5720   85.8272   17.5904 C.3     1  UNL1        0.0020
     38 C          63.1378   88.3323   17.1977 C.3     1  UNL1        0.0020
@<TRIPOS>BOND
     1    32    33    1
     2    33    23    1
     3    23    24   ar
     4    24    25   ar
     5    25    26   ar
     6    26    27   ar
     7    27    28   ar
     8    28    29   ar
     9    29    30   ar
    10    30    31   ar
    11    31    22    1
    12    22     1    1
    13     1     2   ar
    14     2     3   ar
    15     3     4   ar
    16     4     5   ar
    17     5    13    1
    18    13    14    2
    19    13    15   am
    20    15    16    1
    21    16    17    1
    22    17    18    1
    23    18    19    1
    24    18    20    1
    25     4     6   ar
    26     6     7    2
    27     6     8   ar
    28     8     9    1
    29     8    10   ar
    30    10    11    2
    31    10    12   ar
    32    12    35    1
    33    35    36    1
    34    36    37    1
    35    36    38    1
    36    31    23   ar
    37     5     1   ar
    38    20    15    1
    39    30    25   ar
    40    12     3   ar
    41    33    34    1
    42    19    21    1
@<TRIPOS>MOLECULE
*****
 38 42 0 0 0
SMALL
GASTEIGER

@<TRIPOS>ATOM
      1 C          62.7071   88.6522   12.6694 C.ar    1  UNL1        0.0360
      2 S          63.1438   87.4805   13.4979 S.2     1  UNL1       -0.0718
      3 C          63.2563   86.2894   12.5933 C.ar    1  UNL1        0.0983
      4 C          62.8892   86.7248   11.2056 C.ar    1  UNL1        0.0830
      5 C          62.5498   88.1852   11.2526 C.ar    1  UNL1        0.0639
      6 C          62.9115   85.7353   10.0785 C.ar    1  UNL1        0.2663
      7 O          62.5444   86.1708    8.6909 O.2     1  UNL1       -0.2668
      8 N          63.3008   84.3103   10.3390 N.ar    1  UNL1       -0.2467
      9 C          63.3230   83.3208    9.2118 C.3     1  UNL1        0.1382
     10 C          63.6679   83.8748   11.7266 C.ar    1  UNL1        0.3342
     11 O          64.0572   82.4499   11.9872 O.2     1  UNL1       -0.2462
     12 N          63.6457   84.8643   12.8538 N.ar    1  UNL1       -0.2757
     13 C          62.1272   89.0301   10.0875 C.2     1  UNL1        0.2495
     14 O          62.9106   90.2577    9.7282 O.2     1  UNL1       -0.2699
     15 N          60.9213   88.6473    9.2817 N.am    1  UNL1       -0.2735
     16 C          60.0440   87.4543    9.5202 C.3     1  UNL1        0.0964
     17 C          58.9614   87.4600    8.4819 C.3     1  UNL1        0.0525
     18 C          59.1697   88.6566    7.6017 C.3     1  UNL1        0.1320
     19 O          58.3166   89.0503    6.4324 O.3     1  UNL1       -0.3827
     20 C          60.3810   89.3904    8.0961 C.3     1  UNL1        0.1228
     21 H          58.6676   89.8626    6.0350 H       1  UNL1        0.2104
     22 C          62.4695   90.0462   13.1696 C.3     1  UNL1        0.1420
     23 C          63.9010   90.9718   15.2286 C.ar    1  UNL1        0.1982
     24 N          65.1145   91.8420   15.3707 N.ar    1  UNL1       -0.2138
     25 C          65.5633   92.2398   13.9958 C.ar    1  UNL1        0.0999
     26 C          66.7034   93.0898   13.5188 C.ar    1  UNL1        0.0207
     27 C          66.9073   93.3155   12.0500 C.ar    1  UNL1        0.0016
     28 C          65.9711   92.6912   11.0581 C.ar    1  UNL1        0.0016
     29 C          64.8310   91.8412   11.5351 C.ar    1  UNL1        0.0188
     30 C          64.6271   91.6155   13.0039 C.ar    1  UNL1        0.0802
     31 N          63.5998   90.8319   13.7658 N.ar    1  UNL1       -0.2950
     32 C          63.2699   88.8866   16.6440 C.3     1  UNL1        0.1108
     33 N          63.1250   90.3507   16.3520 N.pl3   1  UNL1       -0.3026
     34 H          62.5206   90.9040   16.8976 H       1  UNL1        0.1496
     35 C          64.0128   84.4288   14.2414 C.3     1  UNL1        0.1109
     36 C          62.9452   83.9741   15.1919 C.3     1  UNL1        0.0228
     37 C          62.5340   84.8544   16.3348 C.3     1  UNL1        0.0020
     38 C          62.2889   82.6391   14.9996 C.3     1  UNL1        0.0020
@<TRIPOS>BOND
     1    32    33    1
     2    33    23    1
     3    23    24   ar
     4    24    25   ar
     5    25    26   ar
     6    26    27   ar
     7    27    28   ar
     8    28    29   ar
     9    29    30   ar
    10    30    31   ar
    11    31    22    1
    12    22     1    1
    13     1     2   ar
    14     2     3   ar
    15     3     4   ar
    16     4     5   ar
    17     5    13    1
    18    13    14    2
    19    13    15   am
    20    15    16    1
    21    16    17    1
    22    17    18    1
    23    18    19    1
    24    18    20    1
    25     4     6   ar
    26     6     7    2
    27     6     8   ar
    28     8     9    1
    29     8    10   ar
    30    10    11    2
    31    10    12   ar
    32    12    35    1
    33    35    36    1
    34    36    37    1
    35    36    38    1
    36    31    23   ar
    37     5     1   ar
    38    20    15    1
    39    30    25   ar
    40    12     3   ar
    41    33    34    1
    42    19    21    1
@<TRIPOS>MOLECULE
*****
 38 42 0 0 0
SMALL
GASTEIGER

@<TRIPOS>ATOM
      1 C          63.0229   88.4338   12.9253 C.ar    1  UNL1        0.0360
      2 S          64.1869   89.0074   13.6776 S.2     1  UNL1       -0.0718
      3 C          64.6079   90.2708   12.9874 C.ar    1  UNL1        0.0983
      4 C          63.7041   90.4781   11.8084 C.ar    1  UNL1        0.0830
      5 C          62.7245   89.3428   11.7699 C.ar    1  UNL1        0.0639
      6 C          63.8899   91.6739   10.9220 C.ar    1  UNL1        0.2663
      7 O          62.9861   91.8812    9.7430 O.2     1  UNL1       -0.2668
      8 N          64.9794   92.6624   11.2147 N.ar    1  UNL1       -0.2467
      9 C          65.1652   93.8582   10.3283 C.3     1  UNL1        0.1382
     10 C          65.8833   92.4552   12.3937 C.ar    1  UNL1        0.3342
     11 O          66.9728   93.4436   12.6864 O.2     1  UNL1       -0.2462
     12 N          65.6975   91.2594   13.2801 N.ar    1  UNL1       -0.2757
     13 C          61.6374   89.1502   10.7545 C.2     1  UNL1        0.2495
     14 O          60.5240   90.1497   10.6492 O.2     1  UNL1       -0.2699
     15 N          61.6638   87.9581    9.8445 N.am    1  UNL1       -0.2735
     16 C          62.7071   86.8805    9.8330 C.3     1  UNL1        0.0964
     17 C          62.3396   85.8907    8.7675 C.3     1  UNL1        0.0525
     18 C          61.0691   86.3566    8.1204 C.3     1  UNL1        0.1320
     19 O          60.3436   85.6661    7.0038 O.3     1  UNL1       -0.3827
     20 C          60.6514   87.6344    8.7860 C.3     1  UNL1        0.1228
     21 H          59.5511   86.1743    6.7701 H       1  UNL1        0.2104
     22 C          62.2866   87.1728   13.2680 C.3     1  UNL1        0.1420
     23 C          63.6027   85.7809   15.1323 C.ar    1  UNL1        0.1982
     24 N          64.2769   84.4417   15.1773 N.ar    1  UNL1       -0.2138
     25 C          64.1333   83.8048   13.8269 C.ar    1  UNL1        0.0999
     26 C          64.5987   82.4861   13.2845 C.ar    1  UNL1        0.0207
     27 C          64.3011   82.1129   11.8625 C.ar    1  UNL1        0.0016
     28 C          63.5381   83.0584   10.9829 C.ar    1  UNL1        0.0016
     29 C          63.0727   84.3771   11.5253 C.ar    1  UNL1        0.0188
     30 C          63.3703   84.7503   12.9473 C.ar    1  UNL1        0.0802
     31 N          63.0423   85.9716   13.7541 N.ar    1  UNL1       -0.2950
     32 C          62.7294   86.4010   17.4993 C.3     1  UNL1        0.1108
     33 N          63.5058   86.7578   16.2665 N.pl3   1  UNL1       -0.3026
     34 H          63.9517   87.6331   16.2017 H       1  UNL1        0.1496
     35 C          66.6014   91.0521   14.4591 C.3     1  UNL1        0.1109
     36 C          66.5863   92.0297   15.5967 C.3     1  UNL1        0.0228
     37 C          67.8626   92.6770   16.0462 C.3     1  UNL1        0.0020
     38 C          65.2950   92.3599   16.2847 C.3     1  UNL1        0.0020
@<TRIPOS>BOND
     1    32    33    1
     2    33    23    1
     3    23    24   ar
     4    24    25   ar
     5    25    26   ar
     6    26    27   ar
     7    27    28   ar
     8    28    29   ar
     9    29    30   ar
    10    30    31   ar
    11    31    22    1
    12    22     1    1
    13     1     2   ar
    14     2     3   ar
    15     3     4   ar
    16     4     5   ar
    17     5    13    1
    18    13    14    2
    19    13    15   am
    20    15    16    1
    21    16    17    1
    22    17    18    1
    23    18    19    1
    24    18    20    1
    25     4     6   ar
    26     6     7    2
    27     6     8   ar
    28     8     9    1
    29     8    10   ar
    30    10    11    2
    31    10    12   ar
    32    12    35    1
    33    35    36    1
    34    36    37    1
    35    36    38    1
    36    31    23   ar
    37     5     1   ar
    38    20    15    1
    39    30    25   ar
    40    12     3   ar
    41    33    34    1
    42    19    21    1
@<TRIPOS>MOLECULE
*****
 38 42 0 0 0
SMALL
GASTEIGER

@<TRIPOS>ATOM
      1 C          63.3384   86.4385   12.6457 C.ar    1  UNL1        0.0360
      2 S          62.5750   87.6346   12.1594 S.2     1  UNL1       -0.0718
      3 C          61.9937   87.2996   10.8178 C.ar    1  UNL1        0.0983
      4 C          62.3978   85.8964   10.4749 C.ar    1  UNL1        0.0830
      5 C          63.2289   85.3642   11.6046 C.ar    1  UNL1        0.0639
      6 C          61.9568   85.2846    9.1783 C.ar    1  UNL1        0.2663
      7 O          62.3609   83.8813    8.8354 O.2     1  UNL1       -0.2668
      8 N          61.1117   86.0759    8.2246 N.ar    1  UNL1       -0.2467
      9 C          60.6707   85.4640    6.9280 C.3     1  UNL1        0.1382
     10 C          60.7076   87.4792    8.5675 C.ar    1  UNL1        0.3342
     11 O          59.8625   88.2706    7.6139 O.2     1  UNL1       -0.2462
     12 N          61.1486   88.0910    9.8641 N.ar    1  UNL1       -0.2757
     13 C          63.8427   83.9976   11.6799 C.2     1  UNL1        0.2495
     14 O          65.0269   83.6591   10.8238 O.2     1  UNL1       -0.2699
     15 N          63.2722   82.9695   12.6113 N.am    1  UNL1       -0.2735
     16 C          62.0970   83.1616   13.5235 C.3     1  UNL1        0.0964
     17 C          61.8753   81.8796   14.2701 C.3     1  UNL1        0.0525
     18 C          62.9134   80.8952   13.8193 C.3     1  UNL1        0.1320
     19 O          63.0621   79.4848   14.3078 O.3     1  UNL1       -0.3827
     20 C          63.7767   81.5688   12.7941 C.3     1  UNL1        0.1228
     21 H          63.8106   79.0636   13.8569 H       1  UNL1        0.2104
     22 C          64.0809   86.3348   13.9448 C.3     1  UNL1        0.1420
     23 C          63.0321   86.8512   16.3487 C.ar    1  UNL1        0.1982
     24 N          62.8898   88.0759   17.2029 N.ar    1  UNL1       -0.2138
     25 C          63.5020   89.2294   16.4651 C.ar    1  UNL1        0.0999
     26 C          63.6526   90.6797   16.8169 C.ar    1  UNL1        0.0207
     27 C          64.3239   91.6182   15.8586 C.ar    1  UNL1        0.0016
     28 C          64.8446   91.1064   14.5482 C.ar    1  UNL1        0.0016
     29 C          64.6940   89.6562   14.1964 C.ar    1  UNL1        0.0188
     30 C          64.0227   88.7176   15.1547 C.ar    1  UNL1        0.0802
     31 N          63.7323   87.2478   15.0828 N.ar    1  UNL1       -0.2950
     32 C          63.4131   84.2814   16.3815 C.3     1  UNL1        0.1108
     33 N          62.5576   85.4719   16.6988 N.pl3   1  UNL1       -0.3026
     34 H          61.6846   85.3481   17.1368 H       1  UNL1        0.1496
     35 C          60.7445   89.4943   10.2070 C.3     1  UNL1        0.1109
     36 C          59.6734   89.7380   11.2284 C.3     1  UNL1        0.0228
     37 C          59.1601   91.1283   11.4600 C.3     1  UNL1        0.0020
     38 C          59.1155   88.5913   12.0183 C.3     1  UNL1        0.0020
@<TRIPOS>BOND
     1    32    33    1
     2    33    23    1
     3    23    24   ar
     4    24    25   ar
     5    25    26   ar
     6    26    27   ar
     7    27    28   ar
     8    28    29   ar
     9    29    30   ar
    10    30    31   ar
    11    31    22    1
    12    22     1    1
    13     1     2   ar
    14     2     3   ar
    15     3     4   ar
    16     4     5   ar
    17     5    13    1
    18    13    14    2
    19    13    15   am
    20    15    16    1
    21    16    17    1
    22    17    18    1
    23    18    19    1
    24    18    20    1
    25     4     6   ar
    26     6     7    2
    27     6     8   ar
    28     8     9    1
    29     8    10   ar
    30    10    11    2
    31    10    12   ar
    32    12    35    1
    33    35    36    1
    34    36    37    1
    35    36    38    1
    36    31    23   ar
    37     5     1   ar
    38    20    15    1
    39    30    25   ar
    40    12     3   ar
    41    33    34    1
    42    19    21    1
