@<TRIPOS>MOLECULE
*****
 34 37 0 0 0
SMALL
GASTEIGER

@<TRIPOS>ATOM
      1 O          59.7179   88.9462   12.1333 O.2     1  UNL1       -0.2732
      2 C          60.8799   88.6493   11.2323 C.2     1  UNL1        0.2432
      3 N          62.2221   89.2567   11.5145 N.am    1  UNL1       -0.2990
      4 H          62.9847   89.0619   10.9232 H       1  UNL1        0.1498
      5 C          60.6996   87.7451   10.0491 C.3     1  UNL1        0.1808
      6 C          59.8055   88.0008    8.8722 C.3     1  UNL1        0.0799
      7 C          59.9351   86.8402    7.9308 C.2     1  UNL1        0.0938
      8 N          60.9094   85.8673    8.5260 N.2     1  UNL1       -0.1784
      9 N          61.3819   86.4266    9.8352 N.am    1  UNL1       -0.1712
     10 C          62.3642   85.7806   10.7667 C.2     1  UNL1        0.2759
     11 O          62.7431   86.4628   12.0478 O.2     1  UNL1       -0.2701
     12 C          62.9677   84.4525   10.4173 C.3     1  UNL1        0.2113
     13 O          63.6233   84.2545    9.0828 O.3     1  UNL1       -0.3719
     14 H          63.5706   85.0771    8.5715 H       1  UNL1        0.2114
     15 C          62.9155   83.3226   11.4024 C.ar    1  UNL1        0.0133
     16 C          63.0919   81.9091   10.9325 C.ar    1  UNL1        0.0008
     17 C          63.0397   80.7792   11.9176 C.ar    1  UNL1        0.0294
     18 C          62.8110   81.0628   13.3727 C.ar    1  UNL1        0.1401
     19 F          62.7588   79.9328   14.3578 F       1  UNL1       -0.2042
     20 C          62.6346   82.4763   13.8427 C.ar    1  UNL1        0.0294
     21 C          62.6868   83.6062   12.8575 C.ar    1  UNL1        0.0008
     22 C          62.4024   90.1609   12.6977 C.3     1  UNL1        0.1179
     23 C          63.7422   90.7761   12.9743 C.ar    1  UNL1        0.0161
     24 C          64.2824   91.8380   12.0631 C.ar    1  UNL1        0.0103
     25 C          65.6222   92.4531   12.3397 C.ar    1  UNL1        0.0575
     26 CL         66.1625   93.5151   11.4284 Cl      1  UNL1       -0.0823
     27 C          66.4217   92.0064   13.5276 C.ar    1  UNL1        0.0129
     28 C          65.8815   90.9445   14.4389 C.ar    1  UNL1        0.0199
     29 C          64.5417   90.3293   14.1622 C.ar    1  UNL1        0.0839
     30 N          64.0015   89.2673   15.0735 N.ar    1  UNL1       -0.1889
     31 C          63.2193   89.4999   16.3322 C.ar    1  UNL1        0.2258
     32 N          62.8830   88.1626   16.9226 N.ar    1  UNL1       -0.1045
     33 N          63.4572   87.1036   16.0289 N.ar    1  UNL1       -0.0222
     34 N          64.1485   87.7863   14.8861 N.ar    1  UNL1       -0.0385
@<TRIPOS>BOND
     1     1     2    2
     2     2     3   am
     3     3    22    1
     4    22    23    1
     5    23    24   ar
     6    24    25   ar
     7    25    26    1
     8    25    27   ar
     9    27    28   ar
    10    28    29   ar
    11    29    30    1
    12    30    31   ar
    13    31    32   ar
    14    32    33   ar
    15    33    34   ar
    16     5     2    1
    17     5     6    1
    18     6     7    1
    19     7     8    2
    20     8     9    1
    21     9    10   am
    22    10    11    2
    23    10    12    1
    24    12    13    1
    25    12    15    1
    26    15    16   ar
    27    16    17   ar
    28    17    18   ar
    29    18    19    1
    30    18    20   ar
    31    20    21   ar
    32    29    23   ar
    33    34    30   ar
    34     9     5    1
    35    21    15   ar
    36     3     4    1
    37    13    14    1
@<TRIPOS>MOLECULE
*****
 34 37 0 0 0
SMALL
GASTEIGER

@<TRIPOS>ATOM
      1 O          63.2087   84.8165    8.9400 O.2     1  UNL1       -0.2732
      2 C          62.3835   85.4894    9.9965 C.2     1  UNL1        0.2432
      3 N          62.5830   85.1377   11.4411 N.am    1  UNL1       -0.2990
      4 H          62.0414   85.5793   12.1345 H       1  UNL1        0.1498
      5 C          61.3589   86.5138    9.6086 C.3     1  UNL1        0.1808
      6 C          60.2393   86.3146    8.6304 C.3     1  UNL1        0.0799
      7 C          59.4624   87.5951    8.5480 C.2     1  UNL1        0.0938
      8 N          60.1018   88.5857    9.4753 N.2     1  UNL1       -0.1784
      9 N          61.2739   87.9174   10.1307 N.am    1  UNL1       -0.1712
     10 C          62.1987   88.5430   11.1324 C.2     1  UNL1        0.2759
     11 O          63.3339   87.7469   11.7047 O.2     1  UNL1       -0.2701
     12 C          61.9883   89.9647   11.5620 C.3     1  UNL1        0.2113
     13 O          60.6021   90.4681   11.8360 O.3     1  UNL1       -0.3719
     14 H          59.9635   89.7529   11.6892 H       1  UNL1        0.2114
     15 C          63.1641   90.8830   11.7175 C.ar    1  UNL1        0.0133
     16 C          63.8012   91.0646   13.0633 C.ar    1  UNL1        0.0008
     17 C          64.9770   91.9830   13.2187 C.ar    1  UNL1        0.0294
     18 C          65.5157   92.7197   12.0283 C.ar    1  UNL1        0.1401
     19 F          66.6915   93.6380   12.1838 F       1  UNL1       -0.2042
     20 C          64.8786   92.5381   10.6825 C.ar    1  UNL1        0.0294
     21 C          63.7028   91.6198   10.5271 C.ar    1  UNL1        0.0008
     22 C          63.6076   84.1132   11.8290 C.3     1  UNL1        0.1179
     23 C          63.1714   82.7614   12.3112 C.ar    1  UNL1        0.0161
     24 C          63.1100   81.6077   11.3545 C.ar    1  UNL1        0.0103
     25 C          62.6739   80.2560   11.8367 C.ar    1  UNL1        0.0575
     26 CL         62.6125   79.1023   10.8800 Cl      1  UNL1       -0.0823
     27 C          62.2991   80.0580   13.2755 C.ar    1  UNL1        0.0129
     28 C          62.3604   81.2116   14.2322 C.ar    1  UNL1        0.0199
     29 C          62.7966   82.5633   13.7500 C.ar    1  UNL1        0.0839
     30 N          62.8580   83.7171   14.7067 N.ar    1  UNL1       -0.1889
     31 C          64.1046   84.3135   15.2899 C.ar    1  UNL1        0.2258
     32 N          63.7006   85.4420   16.1917 N.ar    1  UNL1       -0.1045
     33 N          62.2042   85.5430   16.1659 N.ar    1  UNL1       -0.0222
     34 N          61.6835   84.4769   15.2481 N.ar    1  UNL1       -0.0385
@<TRIPOS>BOND
     1     1     2    2
     2     2     3   am
     3     3    22    1
     4    22    23    1
     5    23    24   ar
     6    24    25   ar
     7    25    26    1
     8    25    27   ar
     9    27    28   ar
    10    28    29   ar
    11    29    30    1
    12    30    31   ar
    13    31    32   ar
    14    32    33   ar
    15    33    34   ar
    16     5     2    1
    17     5     6    1
    18     6     7    1
    19     7     8    2
    20     8     9    1
    21     9    10   am
    22    10    11    2
    23    10    12    1
    24    12    13    1
    25    12    15    1
    26    15    16   ar
    27    16    17   ar
    28    17    18   ar
    29    18    19    1
    30    18    20   ar
    31    20    21   ar
    32    29    23   ar
    33    34    30   ar
    34     9     5    1
    35    21    15   ar
    36     3     4    1
    37    13    14    1
@<TRIPOS>MOLECULE
*****
 34 37 0 0 0
SMALL
GASTEIGER

@<TRIPOS>ATOM
      1 O          62.7934   84.9246    8.8154 O.2     1  UNL1       -0.2732
      2 C          61.7815   85.6825    9.6226 C.2     1  UNL1        0.2432
      3 N          61.5718   85.3460   11.0694 N.am    1  UNL1       -0.2990
      4 H          60.9077   85.8434   11.5992 H       1  UNL1        0.1498
      5 C          60.9793   86.7768    8.9832 C.3     1  UNL1        0.1808
      6 C          59.9876   86.6082    7.8704 C.3     1  UNL1        0.0799
      7 C          59.4233   87.9591    7.5438 C.2     1  UNL1        0.0938
      8 N          60.0662   88.9625    8.4548 N.2     1  UNL1       -0.1784
      9 N          61.0278   88.2318    9.3444 N.am    1  UNL1       -0.1712
     10 C          61.8871   88.8481   10.4083 C.2     1  UNL1        0.2759
     11 O          62.8054   87.9863   11.2231 O.2     1  UNL1       -0.2701
     12 C          61.8281   90.3261   10.6574 C.3     1  UNL1        0.2113
     13 O          60.5502   91.0757   10.4229 O.3     1  UNL1       -0.3719
     14 H          59.8665   90.4606   10.1144 H       1  UNL1        0.2114
     15 C          63.0469   91.0544   11.1411 C.ar    1  UNL1        0.0133
     16 C          63.4886   90.9126   12.5675 C.ar    1  UNL1        0.0008
     17 C          64.7075   91.6409   13.0511 C.ar    1  UNL1        0.0294
     18 C          65.4846   92.5110   12.1082 C.ar    1  UNL1        0.1401
     19 F          66.7035   93.2393   12.5919 F       1  UNL1       -0.2042
     20 C          65.0429   92.6528   10.6818 C.ar    1  UNL1        0.0294
     21 C          63.8240   91.9245   10.1982 C.ar    1  UNL1        0.0008
     22 C          62.3740   84.2517   11.7088 C.3     1  UNL1        0.1179
     23 C          63.0814   84.5012   13.0078 C.ar    1  UNL1        0.0161
     24 C          63.5829   85.8761   13.3367 C.ar    1  UNL1        0.0103
     25 C          64.2902   86.1256   14.6356 C.ar    1  UNL1        0.0575
     26 CL         64.7917   87.5005   14.9646 Cl      1  UNL1       -0.0823
     27 C          64.4962   85.0002   15.6057 C.ar    1  UNL1        0.0129
     28 C          63.9948   83.6253   15.2768 C.ar    1  UNL1        0.0199
     29 C          63.2874   83.3758   13.9778 C.ar    1  UNL1        0.0839
     30 N          62.7860   82.0008   13.6489 N.ar    1  UNL1       -0.1889
     31 C          61.5608   81.3495   14.2185 C.ar    1  UNL1        0.2258
     32 N          61.4393   79.9820   13.6142 N.ar    1  UNL1       -0.1045
     33 N          62.5895   79.7882   12.6710 N.ar    1  UNL1       -0.0222
     34 N          63.4217   81.0359   12.6924 N.ar    1  UNL1       -0.0385
@<TRIPOS>BOND
     1     1     2    2
     2     2     3   am
     3     3    22    1
     4    22    23    1
     5    23    24   ar
     6    24    25   ar
     7    25    26    1
     8    25    27   ar
     9    27    28   ar
    10    28    29   ar
    11    29    30    1
    12    30    31   ar
    13    31    32   ar
    14    32    33   ar
    15    33    34   ar
    16     5     2    1
    17     5     6    1
    18     6     7    1
    19     7     8    2
    20     8     9    1
    21     9    10   am
    22    10    11    2
    23    10    12    1
    24    12    13    1
    25    12    15    1
    26    15    16   ar
    27    16    17   ar
    28    17    18   ar
    29    18    19    1
    30    18    20   ar
    31    20    21   ar
    32    29    23   ar
    33    34    30   ar
    34     9     5    1
    35    21    15   ar
    36     3     4    1
    37    13    14    1
@<TRIPOS>MOLECULE
*****
 34 37 0 0 0
SMALL
GASTEIGER

@<TRIPOS>ATOM
      1 O          60.9643   89.3858   12.6752 O.2     1  UNL1       -0.2732
      2 C          61.7407   89.1084   11.4221 C.2     1  UNL1        0.2432
      3 N          62.8048   90.0650   10.9718 N.am    1  UNL1       -0.2990
      4 H          63.3144   89.8830   10.1493 H       1  UNL1        0.1498
      5 C          61.4530   87.8745   10.6192 C.3     1  UNL1        0.1808
      6 C          61.9025   86.4823   10.9505 C.3     1  UNL1        0.0799
      7 C          61.3926   85.5635    9.8801 C.2     1  UNL1        0.0938
      8 N          60.6279   86.3878    8.8873 N.2     1  UNL1       -0.1784
      9 N          60.6653   87.8161    9.3441 N.am    1  UNL1       -0.1712
     10 C          60.0269   88.9814    8.6479 C.2     1  UNL1        0.2759
     11 O          60.1493   90.3597    9.2268 O.2     1  UNL1       -0.2701
     12 C          59.2661   88.7683    7.3728 C.3     1  UNL1        0.2113
     13 O          58.5168   87.4879    7.1516 O.3     1  UNL1       -0.3719
     14 H          58.6271   86.9112    7.9236 H       1  UNL1        0.2114
     15 C          59.2546   89.8358    6.3190 C.ar    1  UNL1        0.0133
     16 C          60.5367   90.2575    5.6646 C.ar    1  UNL1        0.0008
     17 C          60.5252   91.3249    4.6109 C.ar    1  UNL1        0.0294
     18 C          59.2315   91.9706    4.2115 C.ar    1  UNL1        0.1401
     19 F          59.2200   93.0380    3.1578 F       1  UNL1       -0.2042
     20 C          57.9493   91.5489    4.8659 C.ar    1  UNL1        0.0294
     21 C          57.9609   90.4814    5.9197 C.ar    1  UNL1        0.0008
     22 C          63.0925   91.2989   11.7747 C.3     1  UNL1        0.1179
     23 C          64.5111   91.7209   12.0191 C.ar    1  UNL1        0.0161
     24 C          65.2825   92.4195   10.9389 C.ar    1  UNL1        0.0103
     25 C          66.7010   92.8415   11.1833 C.ar    1  UNL1        0.0575
     26 CL         67.4724   93.5401   10.1031 Cl      1  UNL1       -0.0823
     27 C          67.3481   92.5648   12.5079 C.ar    1  UNL1        0.0129
     28 C          66.5768   91.8661   13.5881 C.ar    1  UNL1        0.0199
     29 C          65.1583   91.4442   13.3437 C.ar    1  UNL1        0.0839
     30 N          64.3868   90.7455   14.4239 N.ar    1  UNL1       -0.1889
     31 C          64.1822   89.2644   14.5442 C.ar    1  UNL1        0.2258
     32 N          63.3535   89.0089   15.7681 N.ar    1  UNL1       -0.1045
     33 N          63.0460   90.3321   16.4043 N.ar    1  UNL1       -0.0222
     34 N          63.6846   91.4053   15.5735 N.ar    1  UNL1       -0.0385
@<TRIPOS>BOND
     1     1     2    2
     2     2     3   am
     3     3    22    1
     4    22    23    1
     5    23    24   ar
     6    24    25   ar
     7    25    26    1
     8    25    27   ar
     9    27    28   ar
    10    28    29   ar
    11    29    30    1
    12    30    31   ar
    13    31    32   ar
    14    32    33   ar
    15    33    34   ar
    16     5     2    1
    17     5     6    1
    18     6     7    1
    19     7     8    2
    20     8     9    1
    21     9    10   am
    22    10    11    2
    23    10    12    1
    24    12    13    1
    25    12    15    1
    26    15    16   ar
    27    16    17   ar
    28    17    18   ar
    29    18    19    1
    30    18    20   ar
    31    20    21   ar
    32    29    23   ar
    33    34    30   ar
    34     9     5    1
    35    21    15   ar
    36     3     4    1
    37    13    14    1
@<TRIPOS>MOLECULE
*****
 34 37 0 0 0
SMALL
GASTEIGER

@<TRIPOS>ATOM
      1 O          63.1415   88.2218   16.3162 O.2     1  UNL1       -0.2732
      2 C          63.9114   87.6223   15.1769 C.2     1  UNL1        0.2432
      3 N          64.6921   88.5075   14.2512 N.am    1  UNL1       -0.2990
      4 H          65.1974   88.1140   13.5035 H       1  UNL1        0.1498
      5 C          63.9006   86.1376   14.9634 C.3     1  UNL1        0.1808
      6 C          64.2805   85.0984   15.9761 C.3     1  UNL1        0.0799
      7 C          64.1226   83.7500   15.3383 C.2     1  UNL1        0.0938
      8 N          63.6451   83.9559   13.9312 N.2     1  UNL1       -0.1784
      9 N          63.5079   85.4315   13.6996 N.am    1  UNL1       -0.1712
     10 C          63.0571   86.0861   12.4274 C.2     1  UNL1        0.2759
     11 O          62.9685   87.5811   12.3438 O.2     1  UNL1       -0.2701
     12 C          62.6950   85.2457   11.2389 C.3     1  UNL1        0.2113
     13 O          63.2212   83.8459   11.1219 O.3     1  UNL1       -0.3719
     14 H          63.7748   83.6431   11.8922 H       1  UNL1        0.2114
     15 C          61.8068   85.8051   10.1674 C.ar    1  UNL1        0.0133
     16 C          61.9966   85.3842    8.7403 C.ar    1  UNL1        0.0008
     17 C          61.1083   85.9436    7.6689 C.ar    1  UNL1        0.0294
     18 C          60.0302   86.9240    8.0246 C.ar    1  UNL1        0.1401
     19 F          59.1420   87.4834    6.9532 F       1  UNL1       -0.2042
     20 C          59.8404   87.3449    9.4518 C.ar    1  UNL1        0.0294
     21 C          60.7287   86.7855   10.5232 C.ar    1  UNL1        0.0008
     22 C          64.7030   89.9922   14.4647 C.3     1  UNL1        0.1179
     23 C          64.7439   90.9192   13.2861 C.ar    1  UNL1        0.0161
     24 C          63.8208   90.6970   12.1249 C.ar    1  UNL1        0.0103
     25 C          63.8617   91.6240   10.9463 C.ar    1  UNL1        0.0575
     26 CL         62.9385   91.4019    9.7850 Cl      1  UNL1       -0.0823
     27 C          64.8257   92.7731   10.9290 C.ar    1  UNL1        0.0129
     28 C          65.7488   92.9952   12.0903 C.ar    1  UNL1        0.0199
     29 C          65.7079   92.0682   13.2688 C.ar    1  UNL1        0.0839
     30 N          66.6310   92.2903   14.4301 N.ar    1  UNL1       -0.1889
     31 C          68.1168   92.0851   14.4272 C.ar    1  UNL1        0.2258
     32 N          68.6344   92.4245   15.7935 N.ar    1  UNL1       -0.1045
     33 N          67.4684   92.8396   16.6410 N.ar    1  UNL1       -0.0222
     34 N          66.2302   92.7567   15.7983 N.ar    1  UNL1       -0.0385
@<TRIPOS>BOND
     1     1     2    2
     2     2     3   am
     3     3    22    1
     4    22    23    1
     5    23    24   ar
     6    24    25   ar
     7    25    26    1
     8    25    27   ar
     9    27    28   ar
    10    28    29   ar
    11    29    30    1
    12    30    31   ar
    13    31    32   ar
    14    32    33   ar
    15    33    34   ar
    16     5     2    1
    17     5     6    1
    18     6     7    1
    19     7     8    2
    20     8     9    1
    21     9    10   am
    22    10    11    2
    23    10    12    1
    24    12    13    1
    25    12    15    1
    26    15    16   ar
    27    16    17   ar
    28    17    18   ar
    29    18    19    1
    30    18    20   ar
    31    20    21   ar
    32    29    23   ar
    33    34    30   ar
    34     9     5    1
    35    21    15   ar
    36     3     4    1
    37    13    14    1
@<TRIPOS>MOLECULE
*****
 34 37 0 0 0
SMALL
GASTEIGER

@<TRIPOS>ATOM
      1 O          63.0716   87.2809   16.4879 O.2     1  UNL1       -0.2732
      2 C          63.7834   86.9572   15.2078 C.2     1  UNL1        0.2432
      3 N          64.3544   88.0607   14.3674 N.am    1  UNL1       -0.2990
      4 H          64.8216   87.8483   13.5272 H       1  UNL1        0.1498
      5 C          63.9243   85.5300   14.7682 C.3     1  UNL1        0.1808
      6 C          64.4071   84.3900   15.6152 C.3     1  UNL1        0.0799
      7 C          64.3882   83.1477   14.7749 C.2     1  UNL1        0.0938
      8 N          63.8937   83.5199   13.4084 N.2     1  UNL1       -0.1784
      9 N          63.6070   84.9922   13.4044 N.am    1  UNL1       -0.1712
     10 C          63.0932   85.7871   12.2407 C.2     1  UNL1        0.2759
     11 O          62.8527   87.2605   12.3866 O.2     1  UNL1       -0.2701
     12 C          62.8200   85.1087   10.9310 C.3     1  UNL1        0.2113
     13 O          63.5102   83.8199   10.5957 O.3     1  UNL1       -0.3719
     14 H          64.0943   83.5660   11.3273 H       1  UNL1        0.2114
     15 C          61.8565   85.7192    9.9568 C.ar    1  UNL1        0.0133
     16 C          60.8169   86.6879   10.4371 C.ar    1  UNL1        0.0008
     17 C          59.8535   87.2983    9.4629 C.ar    1  UNL1        0.0294
     18 C          59.9297   86.9400    8.0083 C.ar    1  UNL1        0.1401
     19 F          58.9663   87.5504    7.0341 F       1  UNL1       -0.2042
     20 C          60.9694   85.9712    7.5280 C.ar    1  UNL1        0.0294
     21 C          61.9328   85.3608    8.5023 C.ar    1  UNL1        0.0008
     22 C          64.2135   89.4879   14.8070 C.3     1  UNL1        0.1179
     23 C          64.9891   90.5670   14.1112 C.ar    1  UNL1        0.0161
     24 C          66.3069   91.0203   14.6662 C.ar    1  UNL1        0.0103
     25 C          67.0823   92.0994   13.9704 C.ar    1  UNL1        0.0575
     26 CL         68.4002   92.5527   14.5253 Cl      1  UNL1       -0.0823
     27 C          66.5400   92.7252   12.7197 C.ar    1  UNL1        0.0129
     28 C          65.2222   92.2720   12.1648 C.ar    1  UNL1        0.0199
     29 C          64.4468   91.1929   12.8606 C.ar    1  UNL1        0.0839
     30 N          63.1289   90.7396   12.3056 N.ar    1  UNL1       -0.1889
     31 C          62.6811   90.8690   10.8799 C.ar    1  UNL1        0.2258
     32 N          61.3030   90.2867   10.7722 N.ar    1  UNL1       -0.1045
     33 N          60.8990   89.7973   12.1314 N.ar    1  UNL1       -0.0222
     34 N          62.0275   90.0772   13.0791 N.ar    1  UNL1       -0.0385
@<TRIPOS>BOND
     1     1     2    2
     2     2     3   am
     3     3    22    1
     4    22    23    1
     5    23    24   ar
     6    24    25   ar
     7    25    26    1
     8    25    27   ar
     9    27    28   ar
    10    28    29   ar
    11    29    30    1
    12    30    31   ar
    13    31    32   ar
    14    32    33   ar
    15    33    34   ar
    16     5     2    1
    17     5     6    1
    18     6     7    1
    19     7     8    2
    20     8     9    1
    21     9    10   am
    22    10    11    2
    23    10    12    1
    24    12    13    1
    25    12    15    1
    26    15    16   ar
    27    16    17   ar
    28    17    18   ar
    29    18    19    1
    30    18    20   ar
    31    20    21   ar
    32    29    23   ar
    33    34    30   ar
    34     9     5    1
    35    21    15   ar
    36     3     4    1
    37    13    14    1
@<TRIPOS>MOLECULE
*****
 34 37 0 0 0
SMALL
GASTEIGER

@<TRIPOS>ATOM
      1 O          61.5117   89.6515   15.7758 O.2     1  UNL1       -0.2732
      2 C          62.8880   89.1080   16.0211 C.2     1  UNL1        0.2432
      3 N          64.0910   89.8758   15.5592 N.am    1  UNL1       -0.2990
      4 H          64.9943   89.5191   15.7202 H       1  UNL1        0.1498
      5 C          63.0614   87.7966   16.7284 C.3     1  UNL1        0.1808
      6 C          62.5860   87.4724   18.1137 C.3     1  UNL1        0.0799
      7 C          62.9715   86.0547   18.4161 C.2     1  UNL1        0.0938
      8 N          63.6851   85.5027   17.2176 N.2     1  UNL1       -0.1784
      9 N          63.7407   86.5793   16.1747 N.am    1  UNL1       -0.1712
     10 C          64.3658   86.4596   14.8164 C.2     1  UNL1        0.2759
     11 O          64.3446   87.6275   13.8754 O.2     1  UNL1       -0.2701
     12 C          65.0122   85.1719   14.3991 C.3     1  UNL1        0.2113
     13 O          66.5049   85.0322   14.4465 O.3     1  UNL1       -0.3719
     14 H          66.8970   85.8595   14.7672 H       1  UNL1        0.2114
     15 C          64.1659   84.0240   13.9343 C.ar    1  UNL1        0.0133
     16 C          64.3059   83.5081   12.5328 C.ar    1  UNL1        0.0008
     17 C          63.4595   82.3602   12.0681 C.ar    1  UNL1        0.0294
     18 C          62.4732   81.7282   13.0050 C.ar    1  UNL1        0.1401
     19 F          61.6269   80.5803   12.5402 F       1  UNL1       -0.2042
     20 C          62.3332   82.2440   14.4065 C.ar    1  UNL1        0.0294
     21 C          63.1796   83.3920   14.8711 C.ar    1  UNL1        0.0008
     22 C          63.9176   91.1871   14.8519 C.3     1  UNL1        0.1179
     23 C          63.8693   91.2303   13.3532 C.ar    1  UNL1        0.0161
     24 C          62.7082   90.6239   12.6224 C.ar    1  UNL1        0.0103
     25 C          62.6600   90.6671   11.1239 C.ar    1  UNL1        0.0575
     26 CL         61.4989   90.0606   10.3930 Cl      1  UNL1       -0.0823
     27 C          63.7728   91.3168   10.3561 C.ar    1  UNL1        0.0129
     28 C          64.9339   91.9233   11.0869 C.ar    1  UNL1        0.0199
     29 C          64.9821   91.8801   12.5854 C.ar    1  UNL1        0.0839
     30 N          66.1432   92.4866   13.3163 N.ar    1  UNL1       -0.1889
     31 C          67.5183   91.8982   13.4296 C.ar    1  UNL1        0.2258
     32 N          68.3579   92.8359   14.2454 N.ar    1  UNL1       -0.1045
     33 N          67.5017   94.0039   14.6364 N.ar    1  UNL1       -0.0222
     34 N          66.1330   93.7880   14.0622 N.ar    1  UNL1       -0.0385
@<TRIPOS>BOND
     1     1     2    2
     2     2     3   am
     3     3    22    1
     4    22    23    1
     5    23    24   ar
     6    24    25   ar
     7    25    26    1
     8    25    27   ar
     9    27    28   ar
    10    28    29   ar
    11    29    30    1
    12    30    31   ar
    13    31    32   ar
    14    32    33   ar
    15    33    34   ar
    16     5     2    1
    17     5     6    1
    18     6     7    1
    19     7     8    2
    20     8     9    1
    21     9    10   am
    22    10    11    2
    23    10    12    1
    24    12    13    1
    25    12    15    1
    26    15    16   ar
    27    16    17   ar
    28    17    18   ar
    29    18    19    1
    30    18    20   ar
    31    20    21   ar
    32    29    23   ar
    33    34    30   ar
    34     9     5    1
    35    21    15   ar
    36     3     4    1
    37    13    14    1
@<TRIPOS>MOLECULE
*****
 34 37 0 0 0
SMALL
GASTEIGER

@<TRIPOS>ATOM
      1 O          63.8800   88.6219   15.0600 O.2     1  UNL1       -0.2732
      2 C          63.7448   88.4179   13.5801 C.2     1  UNL1        0.2432
      3 N          63.9905   87.0634   12.9842 N.am    1  UNL1       -0.2990
      4 H          63.9018   86.9295   12.0128 H       1  UNL1        0.1498
      5 C          63.3641   89.5684   12.6961 C.3     1  UNL1        0.1808
      6 C          62.2389   89.5834   11.7042 C.3     1  UNL1        0.0799
      7 C          62.2210   90.9301   11.0439 C.2     1  UNL1        0.0938
      8 N          63.3352   91.7474   11.6277 N.2     1  UNL1       -0.1784
      9 N          64.0416   90.9058   12.6488 N.am    1  UNL1       -0.1712
     10 C          65.2189   91.3275   13.4771 C.2     1  UNL1        0.2759
     11 O          65.8230   90.3721   14.4631 O.2     1  UNL1       -0.2701
     12 C          65.7922   92.7047   13.3194 C.3     1  UNL1        0.2113
     13 O          65.8442   93.6345   14.4953 O.3     1  UNL1       -0.3719
     14 H          65.4702   93.1927   15.2736 H       1  UNL1        0.2114
     15 C          66.3134   93.1520   11.9859 C.ar    1  UNL1        0.0133
     16 C          66.0053   94.5318   11.4846 C.ar    1  UNL1        0.0008
     17 C          66.5265   94.9790   10.1511 C.ar    1  UNL1        0.0294
     18 C          67.3558   94.0464    9.3188 C.ar    1  UNL1        0.1401
     19 F          67.8769   94.4937    7.9853 F       1  UNL1       -0.2042
     20 C          67.6638   92.6666    9.8201 C.ar    1  UNL1        0.0294
     21 C          67.1426   92.2194   11.1536 C.ar    1  UNL1        0.0008
     22 C          64.3712   85.9130   13.8681 C.3     1  UNL1        0.1179
     23 C          63.6207   84.6174   13.7779 C.ar    1  UNL1        0.0161
     24 C          63.8097   83.7223   12.5893 C.ar    1  UNL1        0.0103
     25 C          63.0592   82.4267   12.4991 C.ar    1  UNL1        0.0575
     26 CL         63.2482   81.5315   11.3104 Cl      1  UNL1       -0.0823
     27 C          62.1196   82.0263   13.5977 C.ar    1  UNL1        0.0129
     28 C          61.9305   82.9214   14.7863 C.ar    1  UNL1        0.0199
     29 C          62.6811   84.2169   14.8765 C.ar    1  UNL1        0.0839
     30 N          62.4920   85.1121   16.0652 N.ar    1  UNL1       -0.1889
     31 C          63.5609   85.5365   17.0282 C.ar    1  UNL1        0.2258
     32 N          62.9304   86.4267   18.0577 N.ar    1  UNL1       -0.1045
     33 N          61.4718   86.5525   17.7310 N.ar    1  UNL1       -0.0222
     34 N          61.2009   85.7400   16.4996 N.ar    1  UNL1       -0.0385
@<TRIPOS>BOND
     1     1     2    2
     2     2     3   am
     3     3    22    1
     4    22    23    1
     5    23    24   ar
     6    24    25   ar
     7    25    26    1
     8    25    27   ar
     9    27    28   ar
    10    28    29   ar
    11    29    30    1
    12    30    31   ar
    13    31    32   ar
    14    32    33   ar
    15    33    34   ar
    16     5     2    1
    17     5     6    1
    18     6     7    1
    19     7     8    2
    20     8     9    1
    21     9    10   am
    22    10    11    2
    23    10    12    1
    24    12    13    1
    25    12    15    1
    26    15    16   ar
    27    16    17   ar
    28    17    18   ar
    29    18    19    1
    30    18    20   ar
    31    20    21   ar
    32    29    23   ar
    33    34    30   ar
    34     9     5    1
    35    21    15   ar
    36     3     4    1
    37    13    14    1
@<TRIPOS>MOLECULE
*****
 34 37 0 0 0
SMALL
GASTEIGER

@<TRIPOS>ATOM
      1 O          65.0752   88.2465   14.5586 O.2     1  UNL1       -0.2732
      2 C          63.8207   88.5486   15.3233 C.2     1  UNL1        0.2432
      3 N          63.0511   89.8038   15.0360 N.am    1  UNL1       -0.2990
      4 H          62.2277   90.0021   15.5379 H       1  UNL1        0.1498
      5 C          63.3357   87.5957   16.3753 C.3     1  UNL1        0.1808
      6 C          62.9882   87.9479   17.7914 C.3     1  UNL1        0.0799
      7 C          62.5508   86.6931   18.4872 C.2     1  UNL1        0.0938
      8 N          62.6278   85.5654   17.5011 N.2     1  UNL1       -0.1784
      9 N          63.1129   86.1232   16.1959 N.am    1  UNL1       -0.1712
     10 C          63.3361   85.3452   14.9330 C.2     1  UNL1        0.2759
     11 O          63.8265   86.0428   13.6990 O.2     1  UNL1       -0.2701
     12 C          63.0688   83.8694   14.9041 C.3     1  UNL1        0.2113
     13 O          62.7004   83.1491   16.1672 O.3     1  UNL1       -0.3719
     14 H          62.6794   83.7792   16.9044 H       1  UNL1        0.2114
     15 C          63.1701   83.1141   13.6122 C.ar    1  UNL1        0.0133
     16 C          64.1432   83.5556   12.5595 C.ar    1  UNL1        0.0008
     17 C          64.2444   82.8002   11.2675 C.ar    1  UNL1        0.0294
     18 C          63.3724   81.6033   11.0283 C.ar    1  UNL1        0.1401
     19 F          63.4736   80.8480    9.7363 F       1  UNL1       -0.2042
     20 C          62.3993   81.1618   12.0810 C.ar    1  UNL1        0.0294
     21 C          62.2981   81.9172   13.3729 C.ar    1  UNL1        0.0008
     22 C          63.5361   90.7567   13.9841 C.3     1  UNL1        0.1179
     23 C          63.0524   90.6230   12.5704 C.ar    1  UNL1        0.0161
     24 C          61.8463   89.7844   12.2666 C.ar    1  UNL1        0.0103
     25 C          61.3627   89.6508   10.8530 C.ar    1  UNL1        0.0575
     26 CL         60.1566   88.8122   10.5491 Cl      1  UNL1       -0.0823
     27 C          62.0850   90.3556    9.7434 C.ar    1  UNL1        0.0129
     28 C          63.2910   91.1941   10.0472 C.ar    1  UNL1        0.0199
     29 C          63.7747   91.3278   11.4608 C.ar    1  UNL1        0.0839
     30 N          64.9808   92.1664   11.7647 N.ar    1  UNL1       -0.1889
     31 C          66.0000   92.6380   10.7704 C.ar    1  UNL1        0.2258
     32 N          67.0285   93.4436   11.5074 N.ar    1  UNL1       -0.1045
     33 N          66.6448   93.4698   12.9574 N.ar    1  UNL1       -0.0222
     34 N          65.3793   92.6805   13.1163 N.ar    1  UNL1       -0.0385
@<TRIPOS>BOND
     1     1     2    2
     2     2     3   am
     3     3    22    1
     4    22    23    1
     5    23    24   ar
     6    24    25   ar
     7    25    26    1
     8    25    27   ar
     9    27    28   ar
    10    28    29   ar
    11    29    30    1
    12    30    31   ar
    13    31    32   ar
    14    32    33   ar
    15    33    34   ar
    16     5     2    1
    17     5     6    1
    18     6     7    1
    19     7     8    2
    20     8     9    1
    21     9    10   am
    22    10    11    2
    23    10    12    1
    24    12    13    1
    25    12    15    1
    26    15    16   ar
    27    16    17   ar
    28    17    18   ar
    29    18    19    1
    30    18    20   ar
    31    20    21   ar
    32    29    23   ar
    33    34    30   ar
    34     9     5    1
    35    21    15   ar
    36     3     4    1
    37    13    14    1
