@<TRIPOS>MOLECULE
*****
 17 18 0 0 0
SMALL
GASTEIGER

@<TRIPOS>ATOM
      1 O          64.7350   82.8690    9.9809 O.2     1  UNL1       -0.2866
      2 C          63.6845   83.7171   10.6344 C.2     1  UNL1        0.1957
      3 C          63.3067   83.4729   12.0654 C.ar    1  UNL1        0.0398
      4 C          63.7943   84.4005   13.1386 C.ar    1  UNL1        0.0032
      5 C          63.4165   84.1563   14.5695 C.ar    1  UNL1        0.0010
      6 C          62.5511   82.9844   14.9273 C.ar    1  UNL1        0.0114
      7 C          62.0635   82.0568   13.8541 C.ar    1  UNL1        0.0578
      8 CL         61.1982   80.8850   14.2118 Cl      1  UNL1       -0.0822
      9 C          62.4413   82.3011   12.4231 C.ar    1  UNL1        0.0146
     10 C          63.0117   84.8094    9.8570 C.2     1  UNL1        0.0421
     11 C          61.8264   85.5223   10.4373 C.2     1  UNL1        0.0048
     12 C          61.1536   86.6146    9.6599 C.ar    1  UNL1        0.0193
     13 C          60.2258   86.2707    8.5326 C.ar    1  UNL1        0.0031
     14 C          59.5531   87.3630    7.7552 C.ar    1  UNL1        0.0207
     15 C          59.8081   88.7991    8.1052 C.ar    1  UNL1        0.0989
     16 N          60.7360   89.1430    9.2325 N.ar    1  UNL1       -0.2423
     17 C          61.4087   88.0507   10.0098 C.ar    1  UNL1        0.0988
@<TRIPOS>BOND
     1     1     2    2
     2     2    10    1
     3    10    11    2
     4    11    12    1
     5    12    13   ar
     6    13    14   ar
     7    14    15   ar
     8    15    16   ar
     9    16    17   ar
    10     2     3    1
    11     3     4   ar
    12     4     5   ar
    13     5     6   ar
    14     6     7   ar
    15     7     8    1
    16     7     9   ar
    17    17    12   ar
    18     9     3   ar
@<TRIPOS>MOLECULE
*****
 17 18 0 0 0
SMALL
GASTEIGER

@<TRIPOS>ATOM
      1 O          63.6472   85.9771   13.6895 O.2     1  UNL1       -0.2866
      2 C          63.0615   85.4541   12.4115 C.2     1  UNL1        0.1957
      3 C          63.0818   83.9820   12.1243 C.ar    1  UNL1        0.0398
      4 C          63.7089   83.4729   10.8604 C.ar    1  UNL1        0.0032
      5 C          63.7292   82.0008   10.5732 C.ar    1  UNL1        0.0010
      6 C          63.1223   81.0377   11.5501 C.ar    1  UNL1        0.0114
      7 C          62.4951   81.5468   12.8140 C.ar    1  UNL1        0.0578
      8 CL         61.8882   80.5837   13.7908 Cl      1  UNL1       -0.0822
      9 C          62.4749   83.0189   13.1011 C.ar    1  UNL1        0.0146
     10 C          62.4556   86.4033   11.4205 C.2     1  UNL1        0.0421
     11 C          61.3063   85.9608   10.5641 C.2     1  UNL1        0.0048
     12 C          60.7004   86.9100    9.5732 C.ar    1  UNL1        0.0193
     13 C          59.9087   86.3802    8.4145 C.ar    1  UNL1        0.0031
     14 C          59.3028   87.3294    7.4236 C.ar    1  UNL1        0.0207
     15 C          59.4886   88.8084    7.5914 C.ar    1  UNL1        0.0989
     16 N          60.2803   89.3381    8.7501 N.ar    1  UNL1       -0.2423
     17 C          60.8862   88.3890    9.7409 C.ar    1  UNL1        0.0988
@<TRIPOS>BOND
     1     1     2    2
     2     2    10    1
     3    10    11    2
     4    11    12    1
     5    12    13   ar
     6    13    14   ar
     7    14    15   ar
     8    15    16   ar
     9    16    17   ar
    10     2     3    1
    11     3     4   ar
    12     4     5   ar
    13     5     6   ar
    14     6     7   ar
    15     7     8    1
    16     7     9   ar
    17    17    12   ar
    18     9     3   ar
@<TRIPOS>MOLECULE
*****
 17 18 0 0 0
SMALL
GASTEIGER

@<TRIPOS>ATOM
      1 O          65.9365   93.3489   14.0962 O.2     1  UNL1       -0.2866
      2 C          65.7065   92.7765   12.7289 C.2     1  UNL1        0.1957
      3 C          66.3979   93.3744   11.5395 C.ar    1  UNL1        0.0398
      4 C          66.2216   94.8299   11.2228 C.ar    1  UNL1        0.0032
      5 C          66.9130   95.4277   10.0335 C.ar    1  UNL1        0.0010
      6 C          67.7807   94.5700    9.1608 C.ar    1  UNL1        0.0114
      7 C          67.9569   93.1144    9.4775 C.ar    1  UNL1        0.0578
      8 CL         68.8245   92.2567    8.6049 Cl      1  UNL1       -0.0822
      9 C          67.2655   92.5166   10.6669 C.ar    1  UNL1        0.0146
     10 C          64.7850   91.6063   12.5509 C.2     1  UNL1        0.0421
     11 C          63.9468   91.4933   11.3122 C.2     1  UNL1        0.0048
     12 C          63.0253   90.3231   11.1342 C.ar    1  UNL1        0.0193
     13 C          62.0359   90.3123   10.0069 C.ar    1  UNL1        0.0031
     14 C          61.1145   89.1421    9.8291 C.ar    1  UNL1        0.0207
     15 C          61.1826   87.9828   10.7785 C.ar    1  UNL1        0.0989
     16 N          62.1720   87.9937   11.9058 N.ar    1  UNL1       -0.2423
     17 C          63.0934   89.1638   12.0837 C.ar    1  UNL1        0.0988
@<TRIPOS>BOND
     1     1     2    2
     2     2    10    1
     3    10    11    2
     4    11    12    1
     5    12    13   ar
     6    13    14   ar
     7    14    15   ar
     8    15    16   ar
     9    16    17   ar
    10     2     3    1
    11     3     4   ar
    12     4     5   ar
    13     5     6   ar
    14     6     7   ar
    15     7     8    1
    16     7     9   ar
    17    17    12   ar
    18     9     3   ar
@<TRIPOS>MOLECULE
*****
 17 18 0 0 0
SMALL
GASTEIGER

@<TRIPOS>ATOM
      1 O          61.5317   86.7724    9.1785 O.2     1  UNL1       -0.2866
      2 C          61.9917   86.8800   10.6021 C.2     1  UNL1        0.1957
      3 C          62.5183   88.1841   11.1237 C.ar    1  UNL1        0.0398
      4 C          62.3507   89.4373   10.3165 C.ar    1  UNL1        0.0032
      5 C          62.8772   90.7413   10.8380 C.ar    1  UNL1        0.0010
      6 C          63.5715   90.7923   12.1667 C.ar    1  UNL1        0.0114
      7 C          63.7391   89.5392   12.9739 C.ar    1  UNL1        0.0578
      8 CL         64.4333   89.5901   14.3026 Cl      1  UNL1       -0.0822
      9 C          63.2125   88.2350   12.4523 C.ar    1  UNL1        0.0146
     10 C          61.9251   85.6834   11.5043 C.2     1  UNL1        0.0421
     11 C          62.8613   84.5309   11.2919 C.2     1  UNL1        0.0048
     12 C          62.7947   83.3344   12.1941 C.ar    1  UNL1        0.0193
     13 C          62.8318   81.9527   11.6113 C.ar    1  UNL1        0.0031
     14 C          62.7652   80.7562   12.5135 C.ar    1  UNL1        0.0207
     15 C          62.6614   80.9414   13.9984 C.ar    1  UNL1        0.0989
     16 N          62.6242   82.3231   14.5812 N.ar    1  UNL1       -0.2423
     17 C          62.6909   83.5195   13.6790 C.ar    1  UNL1        0.0988
@<TRIPOS>BOND
     1     1     2    2
     2     2    10    1
     3    10    11    2
     4    11    12    1
     5    12    13   ar
     6    13    14   ar
     7    14    15   ar
     8    15    16   ar
     9    16    17   ar
    10     2     3    1
    11     3     4   ar
    12     4     5   ar
    13     5     6   ar
    14     6     7   ar
    15     7     8    1
    16     7     9   ar
    17    17    12   ar
    18     9     3   ar
@<TRIPOS>MOLECULE
*****
 17 18 0 0 0
SMALL
GASTEIGER

@<TRIPOS>ATOM
      1 O          64.7284   82.7685   10.1662 O.2     1  UNL1       -0.2866
      2 C          63.6609   83.6156   10.7930 C.2     1  UNL1        0.1957
      3 C          63.3457   83.4668   12.2519 C.ar    1  UNL1        0.0398
      4 C          62.5033   82.3190   12.7240 C.ar    1  UNL1        0.0032
      5 C          62.1881   82.1702   14.1829 C.ar    1  UNL1        0.0010
      6 C          62.7153   83.1693   15.1699 C.ar    1  UNL1        0.0114
      7 C          63.5577   84.3171   14.6978 C.ar    1  UNL1        0.0578
      8 CL         64.0849   85.3162   15.6846 Cl      1  UNL1       -0.0822
      9 C          63.8729   84.4659   13.2388 C.ar    1  UNL1        0.0146
     10 C          62.9086   84.6114    9.9609 C.2     1  UNL1        0.0421
     11 C          62.1079   85.6917   10.6256 C.2     1  UNL1        0.0048
     12 C          61.3556   86.6876    9.7935 C.ar    1  UNL1        0.0193
     13 C          61.4514   88.1514   10.1067 C.ar    1  UNL1        0.0031
     14 C          60.6991   89.1471    9.2746 C.ar    1  UNL1        0.0207
     15 C          59.8510   88.6791    8.1293 C.ar    1  UNL1        0.0989
     16 N          59.7552   87.2154    7.8161 N.ar    1  UNL1       -0.2423
     17 C          60.5075   86.2196    8.6482 C.ar    1  UNL1        0.0988
@<TRIPOS>BOND
     1     1     2    2
     2     2    10    1
     3    10    11    2
     4    11    12    1
     5    12    13   ar
     6    13    14   ar
     7    14    15   ar
     8    15    16   ar
     9    16    17   ar
    10     2     3    1
    11     3     4   ar
    12     4     5   ar
    13     5     6   ar
    14     6     7   ar
    15     7     8    1
    16     7     9   ar
    17    17    12   ar
    18     9     3   ar
@<TRIPOS>MOLECULE
*****
 17 18 0 0 0
SMALL
GASTEIGER

@<TRIPOS>ATOM
      1 O          59.8673   90.8784   10.6332 O.2     1  UNL1       -0.2866
      2 C          61.1045   90.0308   10.6610 C.2     1  UNL1        0.1957
      3 C          61.1379   88.7280    9.9184 C.ar    1  UNL1        0.0398
      4 C          62.3315   87.8273   10.0373 C.ar    1  UNL1        0.0032
      5 C          62.3649   86.5245    9.2947 C.ar    1  UNL1        0.0010
      6 C          61.2047   86.1223    8.4332 C.ar    1  UNL1        0.0114
      7 C          60.0111   87.0229    8.3143 C.ar    1  UNL1        0.0578
      8 CL         58.8509   86.6208    7.4529 Cl      1  UNL1       -0.0822
      9 C          59.9777   88.3258    9.0570 C.ar    1  UNL1        0.0146
     10 C          62.3084   90.4861   11.4314 C.2     1  UNL1        0.0421
     11 C          63.3601   91.3166   10.7576 C.2     1  UNL1        0.0048
     12 C          64.5640   91.7719   11.5280 C.ar    1  UNL1        0.0193
     13 C          64.6700   91.4796   12.9954 C.ar    1  UNL1        0.0031
     14 C          65.8738   91.9348   13.7657 C.ar    1  UNL1        0.0207
     15 C          66.9717   92.6824   13.0687 C.ar    1  UNL1        0.0989
     16 N          66.8657   92.9747   11.6013 N.ar    1  UNL1       -0.2423
     17 C          65.6618   92.5194   10.8309 C.ar    1  UNL1        0.0988
@<TRIPOS>BOND
     1     1     2    2
     2     2    10    1
     3    10    11    2
     4    11    12    1
     5    12    13   ar
     6    13    14   ar
     7    14    15   ar
     8    15    16   ar
     9    16    17   ar
    10     2     3    1
    11     3     4   ar
    12     4     5   ar
    13     5     6   ar
    14     6     7   ar
    15     7     8    1
    16     7     9   ar
    17    17    12   ar
    18     9     3   ar
@<TRIPOS>MOLECULE
*****
 17 18 0 0 0
SMALL
GASTEIGER

@<TRIPOS>ATOM
      1 O          59.8869   88.7599   12.0311 O.2     1  UNL1       -0.2866
      2 C          61.0654   88.5031   11.1393 C.2     1  UNL1        0.1957
      3 C          60.9197   87.6116    9.9419 C.ar    1  UNL1        0.0398
      4 C          59.6350   87.5997    9.1676 C.ar    1  UNL1        0.0032
      5 C          59.4893   86.7082    7.9701 C.ar    1  UNL1        0.0010
      6 C          60.6283   85.8285    7.5469 C.ar    1  UNL1        0.0114
      7 C          61.9129   85.8404    8.3213 C.ar    1  UNL1        0.0578
      8 CL         63.0519   84.9608    7.8981 Cl      1  UNL1       -0.0822
      9 C          62.0586   86.7320    9.5188 C.ar    1  UNL1        0.0146
     10 C          62.3896   89.1380   11.4451 C.2     1  UNL1        0.0421
     11 C          62.5070   90.6317   11.5150 C.2     1  UNL1        0.0048
     12 C          63.8312   91.2666   11.8207 C.ar    1  UNL1        0.0193
     13 C          64.4220   91.1450   13.1941 C.ar    1  UNL1        0.0031
     14 C          65.7462   91.7798   13.4998 C.ar    1  UNL1        0.0207
     15 C          66.4796   92.5362   12.4321 C.ar    1  UNL1        0.0989
     16 N          65.8888   92.6578   11.0587 N.ar    1  UNL1       -0.2423
     17 C          64.5647   92.0229   10.7531 C.ar    1  UNL1        0.0988
@<TRIPOS>BOND
     1     1     2    2
     2     2    10    1
     3    10    11    2
     4    11    12    1
     5    12    13   ar
     6    13    14   ar
     7    14    15   ar
     8    15    16   ar
     9    16    17   ar
    10     2     3    1
    11     3     4   ar
    12     4     5   ar
    13     5     6   ar
    14     6     7   ar
    15     7     8    1
    16     7     9   ar
    17    17    12   ar
    18     9     3   ar
@<TRIPOS>MOLECULE
*****
 17 18 0 0 0
SMALL
GASTEIGER

@<TRIPOS>ATOM
      1 O          63.5113   91.4658   16.5040 O.2     1  UNL1       -0.2866
      2 C          64.0222   90.6326   15.3662 C.2     1  UNL1        0.1957
      3 C          64.9780   91.2245   14.3732 C.ar    1  UNL1        0.0398
      4 C          66.4232   91.3985   14.7350 C.ar    1  UNL1        0.0032
      5 C          67.3790   91.9905   13.7420 C.ar    1  UNL1        0.0010
      6 C          66.8895   92.4085   12.3871 C.ar    1  UNL1        0.0114
      7 C          65.4442   92.2345   12.0253 C.ar    1  UNL1        0.0578
      8 CL         64.9547   92.6525   10.6705 Cl      1  UNL1       -0.0822
      9 C          64.4884   91.6425   13.0184 C.ar    1  UNL1        0.0146
     10 C          63.5774   89.2073   15.2214 C.2     1  UNL1        0.0421
     11 C          64.5197   88.1802   14.6674 C.2     1  UNL1        0.0048
     12 C          64.0748   86.7549   14.5226 C.ar    1  UNL1        0.0193
     13 C          63.5462   86.2642   13.2074 C.ar    1  UNL1        0.0031
     14 C          63.1014   84.8390   13.0626 C.ar    1  UNL1        0.0207
     15 C          63.1852   83.9046   14.2330 C.ar    1  UNL1        0.0989
     16 N          63.7138   84.3953   15.5482 N.ar    1  UNL1       -0.2423
     17 C          64.1586   85.8205   15.6930 C.ar    1  UNL1        0.0988
@<TRIPOS>BOND
     1     1     2    2
     2     2    10    1
     3    10    11    2
     4    11    12    1
     5    12    13   ar
     6    13    14   ar
     7    14    15   ar
     8    15    16   ar
     9    16    17   ar
    10     2     3    1
    11     3     4   ar
    12     4     5   ar
    13     5     6   ar
    14     6     7   ar
    15     7     8    1
    16     7     9   ar
    17    17    12   ar
    18     9     3   ar
@<TRIPOS>MOLECULE
*****
 17 18 0 0 0
SMALL
GASTEIGER

@<TRIPOS>ATOM
      1 O          63.6253   88.9550   14.8294 O.2     1  UNL1       -0.2866
      2 C          63.6552   89.8965   13.6620 C.2     1  UNL1        0.1957
      3 C          64.6096   91.0536   13.6560 C.ar    1  UNL1        0.0398
      4 C          64.8038   91.8592   12.4056 C.ar    1  UNL1        0.0032
      5 C          65.7583   93.0163   12.3996 C.ar    1  UNL1        0.0010
      6 C          66.5186   93.3679   13.6439 C.ar    1  UNL1        0.0114
      7 C          66.3244   92.5624   14.8943 C.ar    1  UNL1        0.0578
      8 CL         67.0847   92.9139   16.1386 Cl      1  UNL1       -0.0822
      9 C          65.3699   91.4052   14.9003 C.ar    1  UNL1        0.0146
     10 C          62.7305   89.6809   12.5007 C.2     1  UNL1        0.0421
     11 C          62.7724   88.3897   11.7384 C.2     1  UNL1        0.0048
     12 C          61.8477   88.1741   10.5771 C.ar    1  UNL1        0.0193
     13 C          61.5036   86.7807   10.1411 C.ar    1  UNL1        0.0031
     14 C          60.5790   86.5652    8.9798 C.ar    1  UNL1        0.0207
     15 C          59.9986   87.7429    8.2545 C.ar    1  UNL1        0.0989
     16 N          60.3427   89.1362    8.6905 N.ar    1  UNL1       -0.2423
     17 C          61.2673   89.3518    9.8518 C.ar    1  UNL1        0.0988
@<TRIPOS>BOND
     1     1     2    2
     2     2    10    1
     3    10    11    2
     4    11    12    1
     5    12    13   ar
     6    13    14   ar
     7    14    15   ar
     8    15    16   ar
     9    16    17   ar
    10     2     3    1
    11     3     4   ar
    12     4     5   ar
    13     5     6   ar
    14     6     7   ar
    15     7     8    1
    16     7     9   ar
    17    17    12   ar
    18     9     3   ar
