@<TRIPOS>MOLECULE
*****
 41 44 0 0 0
SMALL
GASTEIGER

@<TRIPOS>ATOM
      1 C          64.1589   89.3313   13.1406 C.ar    1  UNL1        0.0053
      2 C          64.4557   89.1239   14.5962 C.ar    1  UNL1        0.0033
      3 C          64.2283   87.7808   15.2240 C.ar    1  UNL1        0.0382
      4 C          63.7041   86.6450   14.3963 C.ar    1  UNL1        0.1529
      5 C          63.4073   86.8523   12.9406 C.ar    1  UNL1        0.0881
      6 C          63.6347   88.1955   12.3128 C.ar    1  UNL1        0.0181
      7 N          62.8830   85.7166   12.1129 N.am    1  UNL1       -0.2524
      8 C          62.6556   84.3734   12.7407 C.2     1  UNL1        0.2697
      9 O          62.1314   83.2377   11.9130 O.2     1  UNL1       -0.2704
     10 C          62.9525   84.1660   14.1964 C.3     1  UNL1        0.2199
     11 C          63.0830   83.4817   15.5248 C.3     1  UNL1        0.0579
     12 O          63.4767   85.3018   15.0242 O.3     1  UNL1       -0.4686
     13 C          65.2682   91.6801   13.1916 C.ar    1  UNL1        0.0645
     14 N          65.4956   93.0232   12.5637 N.ar    1  UNL1       -0.2183
     15 C          64.8411   93.3608   11.2569 C.ar    1  UNL1        0.2145
     16 N          65.0685   94.7039   10.6290 N.pl3   1  UNL1       -0.3274
     17 N          63.9591   92.3551   10.5780 N.ar    1  UNL1       -0.1995
     18 C          63.7318   91.0119   11.2059 C.ar    1  UNL1        0.1293
     19 N          62.8498   90.0063   10.5270 N.pl3   1  UNL1       -0.3425
     20 C          64.3863   90.6744   12.5127 C.ar    1  UNL1        0.0449
     21 H          65.6473   95.3639   11.0746 H       1  UNL1        0.1452
     22 H          64.6389   94.9254    9.7714 H       1  UNL1        0.1452
     23 H          62.4202   90.2279    9.6693 H       1  UNL1        0.1437
     24 H          62.7006   89.1248   10.9391 H       1  UNL1        0.1437
     25 C          67.3733   91.6577   14.7141 C.3     1  UNL1        0.0067
     26 C          65.9228   91.3425   14.4984 C.3     1  UNL1        0.0460
     27 C          62.4736   82.7926   13.8300 C.ar    1  UNL1        0.0264
     28 C          63.2230   81.9834   12.8133 C.ar    1  UNL1        0.0293
     29 C          62.7441   80.6099   12.4469 C.ar    1  UNL1        0.1422
     30 F          63.4936   79.8008   11.4302 F       1  UNL1       -0.2041
     31 C          61.5158   80.0457   13.0971 C.ar    1  UNL1        0.0592
     32 C          60.7664   80.8548   14.1137 C.ar    1  UNL1        0.1422
     33 F          59.5381   80.2905   14.7639 F       1  UNL1       -0.2041
     34 C          61.2452   82.2283   14.4802 C.ar    1  UNL1        0.0293
     35 C          62.5862   85.9239   10.6573 C.3     1  UNL1        0.1080
     36 C          61.1780   86.1789   10.2079 C.3     1  UNL1        0.1069
     37 C          60.5627   87.5333   10.4009 C.2     1  UNL1        0.2243
     38 O          60.4752   88.4886    9.2478 O.2     1  UNL1       -0.2750
     39 N          60.0349   87.9323   11.7471 N.am    1  UNL1       -0.3026
     40 C          59.4197   89.2865   11.9402 C.3     1  UNL1        0.1107
     41 H          60.0923   87.3052   12.5040 H       1  UNL1        0.1495
@<TRIPOS>BOND
     1    25    26    1
     2    26    13    1
     3    13    14   ar
     4    14    15   ar
     5    15    16    1
     6    15    17   ar
     7    17    18   ar
     8    18    19    1
     9    18    20   ar
    10    20     1    1
    11     1     2   ar
    12     2     3   ar
    13     3     4   ar
    14     4     5   ar
    15     5     6   ar
    16     5     7    1
    17     7    35    1
    18    35    36    1
    19    36    37    1
    20    37    38    2
    21    37    39   am
    22    39    40    1
    23     7     8   am
    24     8     9    2
    25     8    10    1
    26    10    11    1
    27    10    27    1
    28    27    28   ar
    29    28    29   ar
    30    29    30    1
    31    29    31   ar
    32    31    32   ar
    33    32    33    1
    34    32    34   ar
    35    10    12    1
    36    20    13   ar
    37     6     1   ar
    38    34    27   ar
    39    12     4    1
    40    16    21    1
    41    16    22    1
    42    19    23    1
    43    19    24    1
    44    39    41    1
@<TRIPOS>MOLECULE
*****
 41 44 0 0 0
SMALL
GASTEIGER

@<TRIPOS>ATOM
      1 C          64.2546   89.3125   13.4210 C.ar    1  UNL1        0.0053
      2 C          64.5081   89.0700   14.8794 C.ar    1  UNL1        0.0033
      3 C          64.2490   87.7160   15.4706 C.ar    1  UNL1        0.0382
      4 C          63.7365   86.6045   14.6034 C.ar    1  UNL1        0.1529
      5 C          63.4831   86.8471   13.1450 C.ar    1  UNL1        0.0881
      6 C          63.7421   88.2010   12.5538 C.ar    1  UNL1        0.0181
      7 N          62.9706   85.7356   12.2779 N.am    1  UNL1       -0.2524
      8 C          62.7115   84.3816   12.8691 C.2     1  UNL1        0.2697
      9 O          62.1990   83.2702   12.0019 O.2     1  UNL1       -0.2704
     10 C          62.9649   84.1390   14.3275 C.3     1  UNL1        0.2199
     11 C          63.0507   83.4243   15.6435 C.3     1  UNL1        0.0579
     12 O          63.4774   85.2505   15.1947 O.3     1  UNL1       -0.4686
     13 C          63.8178   91.0790   11.5666 C.ar    1  UNL1        0.0645
     14 N          64.0768   92.4329   10.9753 N.ar    1  UNL1       -0.2183
     15 C          65.0319   93.3745   11.6472 C.ar    1  UNL1        0.2145
     16 N          65.2909   94.7285   11.0559 N.pl3   1  UNL1       -0.3274
     17 N          65.7278   92.9621   12.9103 N.ar    1  UNL1       -0.1995
     18 C          65.4687   91.6081   13.5016 C.ar    1  UNL1        0.1293
     19 N          66.1647   91.1956   14.7647 N.pl3   1  UNL1       -0.3425
     20 C          64.5137   90.6665   12.8297 C.ar    1  UNL1        0.0449
     21 H          64.8341   94.9992   10.2269 H       1  UNL1        0.1452
     22 H          65.9177   95.3465   11.4969 H       1  UNL1        0.1452
     23 H          66.7915   91.8136   15.2057 H       1  UNL1        0.1437
     24 H          65.9947   90.3070   15.1528 H       1  UNL1        0.1437
     25 C          62.0793   90.5907    9.6986 C.3     1  UNL1        0.0067
     26 C          62.8627   90.1374   10.8947 C.3     1  UNL1        0.0460
     27 C          62.4822   82.7794   13.9174 C.ar    1  UNL1        0.0264
     28 C          61.2296   82.2150   14.5195 C.ar    1  UNL1        0.0293
     29 C          60.7469   80.8553   14.1093 C.ar    1  UNL1        0.1422
     30 F          59.4943   80.2910   14.7115 F       1  UNL1       -0.2041
     31 C          61.5167   80.0600   13.0971 C.ar    1  UNL1        0.0592
     32 C          62.7693   80.6243   12.4949 C.ar    1  UNL1        0.1422
     33 F          63.5392   79.8290   11.4826 F       1  UNL1       -0.2041
     34 C          63.2521   81.9840   12.9051 C.ar    1  UNL1        0.0293
     35 C          62.7172   85.9781   10.8195 C.3     1  UNL1        0.1080
     36 C          61.3112   86.0101   10.2977 C.3     1  UNL1        0.1069
     37 C          60.4953   87.2632   10.4168 C.2     1  UNL1        0.2243
     38 O          60.0032   87.9579    9.1819 O.2     1  UNL1       -0.2750
     39 N          60.1717   87.8216   11.7709 N.am    1  UNL1       -0.3026
     40 C          59.3559   89.0746   11.8900 C.3     1  UNL1        0.1107
     41 H          60.4947   87.3656   12.5814 H       1  UNL1        0.1495
@<TRIPOS>BOND
     1    25    26    1
     2    26    13    1
     3    13    14   ar
     4    14    15   ar
     5    15    16    1
     6    15    17   ar
     7    17    18   ar
     8    18    19    1
     9    18    20   ar
    10    20     1    1
    11     1     2   ar
    12     2     3   ar
    13     3     4   ar
    14     4     5   ar
    15     5     6   ar
    16     5     7    1
    17     7    35    1
    18    35    36    1
    19    36    37    1
    20    37    38    2
    21    37    39   am
    22    39    40    1
    23     7     8   am
    24     8     9    2
    25     8    10    1
    26    10    11    1
    27    10    27    1
    28    27    28   ar
    29    28    29   ar
    30    29    30    1
    31    29    31   ar
    32    31    32   ar
    33    32    33    1
    34    32    34   ar
    35    10    12    1
    36    20    13   ar
    37     6     1   ar
    38    34    27   ar
    39    12     4    1
    40    16    21    1
    41    16    22    1
    42    19    23    1
    43    19    24    1
    44    39    41    1
@<TRIPOS>MOLECULE
*****
 41 44 0 0 0
SMALL
GASTEIGER

@<TRIPOS>ATOM
      1 C          65.4709   90.8339   14.1574 C.ar    1  UNL1        0.0053
      2 C          65.1279   89.5706   14.8897 C.ar    1  UNL1        0.0033
      3 C          64.1694   88.5890   14.2835 C.ar    1  UNL1        0.0382
      4 C          63.5538   88.8707   12.9449 C.ar    1  UNL1        0.1529
      5 C          63.8968   90.1341   12.2127 C.ar    1  UNL1        0.0881
      6 C          64.8553   91.1157   12.8189 C.ar    1  UNL1        0.0181
      7 N          63.2812   90.4158   10.8741 N.am    1  UNL1       -0.2524
      8 C          62.3226   89.4342   10.2679 C.2     1  UNL1        0.2697
      9 O          61.7070   89.7159    8.9293 O.2     1  UNL1       -0.2704
     10 C          61.9796   88.1708   11.0002 C.3     1  UNL1        0.2199
     11 C          61.3465   86.8454   11.3043 C.3     1  UNL1        0.0579
     12 O          62.5952   87.8890   12.3387 O.3     1  UNL1       -0.4686
     13 C          67.7720   92.0400   14.1333 C.ar    1  UNL1        0.0645
     14 N          68.7305   93.0216   14.7394 N.ar    1  UNL1       -0.2183
     15 C          68.3467   93.7789   15.9761 C.ar    1  UNL1        0.2145
     16 N          69.3052   94.7605   16.5823 N.pl3   1  UNL1       -0.3274
     17 N          67.0042   93.5545   16.6065 N.ar    1  UNL1       -0.1995
     18 C          66.0456   92.5728   16.0003 C.ar    1  UNL1        0.1293
     19 N          64.7031   92.3484   16.6307 N.pl3   1  UNL1       -0.3425
     20 C          66.4295   91.8156   14.7637 C.ar    1  UNL1        0.0449
     21 H          70.1863   94.9078   16.1685 H       1  UNL1        0.1452
     22 H          69.0533   95.2575   17.3939 H       1  UNL1        0.1452
     23 H          64.4512   92.8454   17.4423 H       1  UNL1        0.1437
     24 H          64.0740   91.7041   16.2328 H       1  UNL1        0.1437
     25 C          68.4624   92.0232   11.6286 C.3     1  UNL1        0.0067
     26 C          68.1558   91.2828   12.8966 C.3     1  UNL1        0.0460
     27 C          61.1442   87.9922    9.7673 C.ar    1  UNL1        0.0264
     28 C          61.1284   86.6713    9.0568 C.ar    1  UNL1        0.0293
     29 C          60.2929   86.4927    7.8238 C.ar    1  UNL1        0.1422
     30 F          60.2771   85.1717    7.1134 F       1  UNL1       -0.2041
     31 C          59.4732   87.6351    7.3014 C.ar    1  UNL1        0.0592
     32 C          59.4890   88.9560    8.0119 C.ar    1  UNL1        0.1422
     33 F          58.6693   90.0985    7.4894 F       1  UNL1       -0.2041
     34 C          60.3244   89.1347    9.2448 C.ar    1  UNL1        0.0293
     35 C          63.6241   91.6791   10.1418 C.3     1  UNL1        0.1080
     36 C          65.0541   92.1194   10.0349 C.3     1  UNL1        0.1069
     37 C          65.4547   93.4871   10.5030 C.2     1  UNL1        0.2243
     38 O          65.4935   93.7961   11.9703 O.2     1  UNL1       -0.2750
     39 N          65.8166   94.5457    9.5038 N.am    1  UNL1       -0.3026
     40 C          66.2172   95.9133    9.9719 C.3     1  UNL1        0.1107
     41 H          65.7912   94.3429    8.5408 H       1  UNL1        0.1495
@<TRIPOS>BOND
     1    25    26    1
     2    26    13    1
     3    13    14   ar
     4    14    15   ar
     5    15    16    1
     6    15    17   ar
     7    17    18   ar
     8    18    19    1
     9    18    20   ar
    10    20     1    1
    11     1     2   ar
    12     2     3   ar
    13     3     4   ar
    14     4     5   ar
    15     5     6   ar
    16     5     7    1
    17     7    35    1
    18    35    36    1
    19    36    37    1
    20    37    38    2
    21    37    39   am
    22    39    40    1
    23     7     8   am
    24     8     9    2
    25     8    10    1
    26    10    11    1
    27    10    27    1
    28    27    28   ar
    29    28    29   ar
    30    29    30    1
    31    29    31   ar
    32    31    32   ar
    33    32    33    1
    34    32    34   ar
    35    10    12    1
    36    20    13   ar
    37     6     1   ar
    38    34    27   ar
    39    12     4    1
    40    16    21    1
    41    16    22    1
    42    19    23    1
    43    19    24    1
    44    39    41    1
@<TRIPOS>MOLECULE
*****
 41 44 0 0 0
SMALL
GASTEIGER

@<TRIPOS>ATOM
      1 C          65.4407   90.7682   14.1175 C.ar    1  UNL1        0.0053
      2 C          65.0970   89.5156   14.8678 C.ar    1  UNL1        0.0033
      3 C          64.1518   88.5174   14.2676 C.ar    1  UNL1        0.0382
      4 C          63.5504   88.7718   12.9172 C.ar    1  UNL1        0.1529
      5 C          63.8942   90.0244   12.1669 C.ar    1  UNL1        0.0881
      6 C          64.8393   91.0225   12.7671 C.ar    1  UNL1        0.0181
      7 N          63.2928   90.2787   10.8165 N.am    1  UNL1       -0.2524
      8 C          62.3476   89.2806   10.2164 C.2     1  UNL1        0.2697
      9 O          61.7462   89.5350    8.8660 O.2     1  UNL1       -0.2704
     10 C          62.0038   88.0279   10.9666 C.3     1  UNL1        0.2199
     11 C          61.3754   86.7040   11.2864 C.3     1  UNL1        0.0579
     12 O          62.6052   87.7735   12.3170 O.3     1  UNL1       -0.4686
     13 C          66.0869   92.3710   16.0575 C.ar    1  UNL1        0.0645
     14 N          67.0321   93.3692   16.6577 N.ar    1  UNL1       -0.2183
     15 C          68.2763   93.7629   15.9181 C.ar    1  UNL1        0.2145
     16 N          69.2214   94.7611   16.5182 N.pl3   1  UNL1       -0.3274
     17 N          68.5753   93.1583   14.5783 N.ar    1  UNL1       -0.1995
     18 C          67.6301   92.1601   13.9781 C.ar    1  UNL1        0.1293
     19 N          67.9291   91.5555   12.6383 N.pl3   1  UNL1       -0.3425
     20 C          66.3860   91.7664   14.7177 C.ar    1  UNL1        0.0449
     21 H          69.0252   95.1579   17.3976 H       1  UNL1        0.1452
     22 H          70.0380   95.0195   16.0328 H       1  UNL1        0.1452
     23 H          68.7457   91.8139   12.1528 H       1  UNL1        0.1437
     24 H          67.3088   90.9003   12.2443 H       1  UNL1        0.1437
     25 C          63.6504   92.8874   16.7969 C.3     1  UNL1        0.0067
     26 C          64.8427   91.9773   16.7972 C.3     1  UNL1        0.0460
     27 C          61.1842   87.8225    9.7273 C.ar    1  UNL1        0.0264
     28 C          61.2547   86.5187    8.9889 C.ar    1  UNL1        0.0293
     29 C          60.4350   86.3134    7.7496 C.ar    1  UNL1        0.1422
     30 F          60.5057   85.0095    7.0113 F       1  UNL1       -0.2041
     31 C          59.5448   87.4117    7.2486 C.ar    1  UNL1        0.0592
     32 C          59.4743   88.7155    7.9869 C.ar    1  UNL1        0.1422
     33 F          58.5840   89.8139    7.4859 F       1  UNL1       -0.2041
     34 C          60.2939   88.9209    9.2262 C.ar    1  UNL1        0.0293
     35 C          63.6365   91.5313   10.0663 C.3     1  UNL1        0.1080
     36 C          64.3869   92.6343   10.7521 C.3     1  UNL1        0.1069
     37 C          65.6886   93.1201   10.1867 C.2     1  UNL1        0.2243
     38 O          66.8681   92.1960   10.1181 O.2     1  UNL1       -0.2750
     39 N          65.8108   94.5302    9.6899 N.am    1  UNL1       -0.3026
     40 C          67.1124   95.0161    9.1246 C.3     1  UNL1        0.1107
     41 H          65.0367   95.1368    9.7350 H       1  UNL1        0.1495
@<TRIPOS>BOND
     1    25    26    1
     2    26    13    1
     3    13    14   ar
     4    14    15   ar
     5    15    16    1
     6    15    17   ar
     7    17    18   ar
     8    18    19    1
     9    18    20   ar
    10    20     1    1
    11     1     2   ar
    12     2     3   ar
    13     3     4   ar
    14     4     5   ar
    15     5     6   ar
    16     5     7    1
    17     7    35    1
    18    35    36    1
    19    36    37    1
    20    37    38    2
    21    37    39   am
    22    39    40    1
    23     7     8   am
    24     8     9    2
    25     8    10    1
    26    10    11    1
    27    10    27    1
    28    27    28   ar
    29    28    29   ar
    30    29    30    1
    31    29    31   ar
    32    31    32   ar
    33    32    33    1
    34    32    34   ar
    35    10    12    1
    36    20    13   ar
    37     6     1   ar
    38    34    27   ar
    39    12     4    1
    40    16    21    1
    41    16    22    1
    42    19    23    1
    43    19    24    1
    44    39    41    1
@<TRIPOS>MOLECULE
*****
 41 44 0 0 0
SMALL
GASTEIGER

@<TRIPOS>ATOM
      1 C          64.1166   89.5852   13.3547 C.ar    1  UNL1        0.0053
      2 C          64.1894   89.5435   14.8523 C.ar    1  UNL1        0.0033
      3 C          63.9205   88.2602   15.5808 C.ar    1  UNL1        0.0382
      4 C          63.5788   87.0186   14.8117 C.ar    1  UNL1        0.1529
      5 C          63.5060   87.0603   13.3141 C.ar    1  UNL1        0.0881
      6 C          63.7749   88.3436   12.5856 C.ar    1  UNL1        0.0181
      7 N          63.1643   85.8186   12.5449 N.am    1  UNL1       -0.2524
      8 C          62.8954   84.5353   13.2734 C.2     1  UNL1        0.2697
      9 O          62.5537   83.2937   12.5043 O.2     1  UNL1       -0.2704
     10 C          62.9682   84.4936   14.7711 C.3     1  UNL1        0.2199
     11 C          62.9161   83.9558   16.1704 C.3     1  UNL1        0.0579
     12 O          63.3099   85.7352   15.5402 O.3     1  UNL1       -0.4686
     13 C          63.7306   91.1309   11.3024 C.ar    1  UNL1        0.0645
     14 N          63.9994   92.4142   10.5738 N.ar    1  UNL1       -0.2183
     15 C          64.9233   93.4352   11.1690 C.ar    1  UNL1        0.2145
     16 N          65.1921   94.7185   10.4405 N.pl3   1  UNL1       -0.3274
     17 N          65.5782   93.1729   12.4927 N.ar    1  UNL1       -0.1995
     18 C          65.3093   91.8895   13.2213 C.ar    1  UNL1        0.1293
     19 N          65.9642   91.6272   14.5450 N.pl3   1  UNL1       -0.3425
     20 C          64.3855   90.8686   12.6261 C.ar    1  UNL1        0.0449
     21 H          64.7623   94.8907    9.5716 H       1  UNL1        0.1452
     22 H          65.7984   95.3886   10.8311 H       1  UNL1        0.1452
     23 H          66.5705   92.2973   14.9357 H       1  UNL1        0.1437
     24 H          65.7877   90.7849   15.0232 H       1  UNL1        0.1437
     25 C          61.3634   90.4477   10.4778 C.3     1  UNL1        0.0067
     26 C          62.8068   90.1099   10.7072 C.3     1  UNL1        0.0460
     27 C          62.6084   83.0652   14.4879 C.ar    1  UNL1        0.0264
     28 C          63.6891   82.0526   14.2497 C.ar    1  UNL1        0.0293
     29 C          63.3292   80.6242   13.9666 C.ar    1  UNL1        0.1422
     30 F          64.4100   79.6116   13.7284 F       1  UNL1       -0.2041
     31 C          61.8888   80.2084   13.9216 C.ar    1  UNL1        0.0592
     32 C          60.8081   81.2210   14.1598 C.ar    1  UNL1        0.1422
     33 F          59.3676   80.8051   14.1148 F       1  UNL1       -0.2041
     34 C          61.1678   82.6494   14.4429 C.ar    1  UNL1        0.0293
     35 C          63.0915   85.8603   11.0473 C.3     1  UNL1        0.1080
     36 C          61.7883   86.1604   10.3678 C.3     1  UNL1        0.1069
     37 C          61.6245   85.8814    8.9031 C.2     1  UNL1        0.2243
     38 O          60.4233   86.4011    8.1703 O.2     1  UNL1       -0.2750
     39 N          62.6620   85.0828    8.1711 N.am    1  UNL1       -0.3026
     40 C          62.4983   84.8039    6.7064 C.3     1  UNL1        0.1107
     41 H          63.4505   84.7417    8.6520 H       1  UNL1        0.1495
@<TRIPOS>BOND
     1    25    26    1
     2    26    13    1
     3    13    14   ar
     4    14    15   ar
     5    15    16    1
     6    15    17   ar
     7    17    18   ar
     8    18    19    1
     9    18    20   ar
    10    20     1    1
    11     1     2   ar
    12     2     3   ar
    13     3     4   ar
    14     4     5   ar
    15     5     6   ar
    16     5     7    1
    17     7    35    1
    18    35    36    1
    19    36    37    1
    20    37    38    2
    21    37    39   am
    22    39    40    1
    23     7     8   am
    24     8     9    2
    25     8    10    1
    26    10    11    1
    27    10    27    1
    28    27    28   ar
    29    28    29   ar
    30    29    30    1
    31    29    31   ar
    32    31    32   ar
    33    32    33    1
    34    32    34   ar
    35    10    12    1
    36    20    13   ar
    37     6     1   ar
    38    34    27   ar
    39    12     4    1
    40    16    21    1
    41    16    22    1
    42    19    23    1
    43    19    24    1
    44    39    41    1
@<TRIPOS>MOLECULE
*****
 41 44 0 0 0
SMALL
GASTEIGER

@<TRIPOS>ATOM
      1 C          63.9276   89.1581   14.3266 C.ar    1  UNL1        0.0053
      2 C          64.3458   87.7772   14.7368 C.ar    1  UNL1        0.0033
      3 C          64.1038   86.6164   13.8181 C.ar    1  UNL1        0.0382
      4 C          63.4437   86.8365   12.4893 C.ar    1  UNL1        0.1529
      5 C          63.0255   88.2174   12.0791 C.ar    1  UNL1        0.0881
      6 C          63.2675   89.3782   12.9978 C.ar    1  UNL1        0.0181
      7 N          62.3654   88.4375   10.7503 N.am    1  UNL1       -0.2524
      8 C          62.1234   87.2767    9.8317 C.2     1  UNL1        0.2697
      9 O          61.4633   87.4968    8.5028 O.2     1  UNL1       -0.2704
     10 C          62.5416   85.8957   10.2418 C.3     1  UNL1        0.2199
     11 C          62.7564   84.4123   10.1834 C.3     1  UNL1        0.0579
     12 O          63.2017   85.6756   11.5706 O.3     1  UNL1       -0.4686
     13 C          65.2612   91.3016   14.9406 C.ar    1  UNL1        0.0645
     14 N          65.5032   92.4625   15.8592 N.ar    1  UNL1       -0.2183
     15 C          64.6536   92.6407   17.0826 C.ar    1  UNL1        0.2145
     16 N          64.8956   93.8015   18.0012 N.pl3   1  UNL1       -0.3274
     17 N          63.5620   91.6580   17.3872 N.ar    1  UNL1       -0.1995
     18 C          63.3200   90.4971   16.4686 C.ar    1  UNL1        0.1293
     19 N          62.2284   89.5145   16.7732 N.pl3   1  UNL1       -0.3425
     20 C          64.1696   90.3190   15.2453 C.ar    1  UNL1        0.0449
     21 H          65.6120   94.4464   17.8012 H       1  UNL1        0.1452
     22 H          64.3379   93.9185   18.8041 H       1  UNL1        0.1452
     23 H          61.6708   89.6314   17.5761 H       1  UNL1        0.1437
     24 H          62.0696   88.7526   16.1703 H       1  UNL1        0.1437
     25 C          67.4106   91.8617   13.5929 C.3     1  UNL1        0.0067
     26 C          66.1108   91.1234   13.7173 C.3     1  UNL1        0.0460
     27 C          61.9561   85.6007    8.8927 C.ar    1  UNL1        0.0264
     28 C          60.5215   85.9342    8.6085 C.ar    1  UNL1        0.0293
     29 C          59.9360   85.6391    7.2594 C.ar    1  UNL1        0.1422
     30 F          58.5013   85.9726    6.9753 F       1  UNL1       -0.2041
     31 C          60.7849   85.0105    6.1945 C.ar    1  UNL1        0.0592
     32 C          62.2195   84.6770    6.4787 C.ar    1  UNL1        0.1422
     33 F          63.0685   84.0485    5.4138 F       1  UNL1       -0.2041
     34 C          62.8051   84.9721    7.8278 C.ar    1  UNL1        0.0293
     35 C          61.9472   89.8183   10.3402 C.3     1  UNL1        0.1080
     36 C          60.4977   90.1242   10.1049 C.3     1  UNL1        0.1069
     37 C          59.5312   90.1043   11.2519 C.2     1  UNL1        0.2243
     38 O          58.7347   91.3315   11.5829 O.2     1  UNL1       -0.2750
     39 N          59.3614   88.8572   12.0680 N.am    1  UNL1       -0.3026
     40 C          58.3950   88.8373   13.2149 C.3     1  UNL1        0.1107
     41 H          59.8842   88.0518   11.8507 H       1  UNL1        0.1495
@<TRIPOS>BOND
     1    25    26    1
     2    26    13    1
     3    13    14   ar
     4    14    15   ar
     5    15    16    1
     6    15    17   ar
     7    17    18   ar
     8    18    19    1
     9    18    20   ar
    10    20     1    1
    11     1     2   ar
    12     2     3   ar
    13     3     4   ar
    14     4     5   ar
    15     5     6   ar
    16     5     7    1
    17     7    35    1
    18    35    36    1
    19    36    37    1
    20    37    38    2
    21    37    39   am
    22    39    40    1
    23     7     8   am
    24     8     9    2
    25     8    10    1
    26    10    11    1
    27    10    27    1
    28    27    28   ar
    29    28    29   ar
    30    29    30    1
    31    29    31   ar
    32    31    32   ar
    33    32    33    1
    34    32    34   ar
    35    10    12    1
    36    20    13   ar
    37     6     1   ar
    38    34    27   ar
    39    12     4    1
    40    16    21    1
    41    16    22    1
    42    19    23    1
    43    19    24    1
    44    39    41    1
@<TRIPOS>MOLECULE
*****
 41 44 0 0 0
SMALL
GASTEIGER

@<TRIPOS>ATOM
      1 C          64.2726   89.4536   13.2171 C.ar    1  UNL1        0.0053
      2 C          64.6337   89.1961   14.6500 C.ar    1  UNL1        0.0033
      3 C          64.4180   87.8363   15.2451 C.ar    1  UNL1        0.0382
      4 C          63.8410   86.7339   14.4073 C.ar    1  UNL1        0.1529
      5 C          63.4798   86.9913   12.9744 C.ar    1  UNL1        0.0881
      6 C          63.6956   88.3512   12.3793 C.ar    1  UNL1        0.0181
      7 N          62.9029   85.8889   12.1367 N.am    1  UNL1       -0.2524
      8 C          62.6871   84.5291   12.7318 C.2     1  UNL1        0.2697
      9 O          62.1102   83.4267   11.8941 O.2     1  UNL1       -0.2704
     10 C          63.0483   84.2716   14.1648 C.3     1  UNL1        0.2199
     11 C          63.2311   83.5435   15.4634 C.3     1  UNL1        0.0579
     12 O          63.6252   85.3740   15.0026 O.3     1  UNL1       -0.4686
     13 C          65.3668   91.8077   13.3217 C.ar    1  UNL1        0.0645
     14 N          65.5826   93.1675   12.7266 N.ar    1  UNL1       -0.2183
     15 C          64.9199   93.5332   11.4315 C.ar    1  UNL1        0.2145
     16 N          65.1357   94.8930   10.8364 N.pl3   1  UNL1       -0.3274
     17 N          64.0414   92.5390   10.7316 N.ar    1  UNL1       -0.1995
     18 C          63.8256   91.1791   11.3268 C.ar    1  UNL1        0.1293
     19 N          62.9471   90.1849   10.6270 N.pl3   1  UNL1       -0.3425
     20 C          64.4883   90.8135   12.6219 C.ar    1  UNL1        0.0449
     21 H          65.7123   95.5455   11.2957 H       1  UNL1        0.1452
     22 H          64.7007   95.1330    9.9864 H       1  UNL1        0.1452
     23 H          62.5122   90.4249    9.7770 H       1  UNL1        0.1437
     24 H          62.8055   89.2924   11.0176 H       1  UNL1        0.1437
     25 C          67.5036   91.6575   14.7920 C.3     1  UNL1        0.0067
     26 C          66.0296   91.4420   14.6168 C.3     1  UNL1        0.0460
     27 C          62.5349   82.9164   13.7780 C.ar    1  UNL1        0.0264
     28 C          61.3259   82.3493   14.4613 C.ar    1  UNL1        0.0293
     29 C          60.8124   80.9940   14.0745 C.ar    1  UNL1        0.1422
     30 F          59.6034   80.4270   14.7578 F       1  UNL1       -0.2041
     31 C          61.5079   80.2058   13.0045 C.ar    1  UNL1        0.0592
     32 C          62.7169   80.7728   12.3213 C.ar    1  UNL1        0.1422
     33 F          63.4124   79.9846   11.2513 F       1  UNL1       -0.2041
     34 C          63.2304   82.1281   12.7080 C.ar    1  UNL1        0.0293
     35 C          62.5417   86.1464   10.7038 C.3     1  UNL1        0.1080
     36 C          62.9308   85.1595    9.6433 C.3     1  UNL1        0.1069
     37 C          62.2496   85.1867    8.3071 C.2     1  UNL1        0.2243
     38 O          61.0260   86.0308    8.1062 O.2     1  UNL1       -0.2750
     39 N          62.7919   84.3699    7.1720 N.am    1  UNL1       -0.3026
     40 C          62.1108   84.3972    5.8359 C.3     1  UNL1        0.1107
     41 H          63.5950   83.8160    7.3038 H       1  UNL1        0.1495
@<TRIPOS>BOND
     1    25    26    1
     2    26    13    1
     3    13    14   ar
     4    14    15   ar
     5    15    16    1
     6    15    17   ar
     7    17    18   ar
     8    18    19    1
     9    18    20   ar
    10    20     1    1
    11     1     2   ar
    12     2     3   ar
    13     3     4   ar
    14     4     5   ar
    15     5     6   ar
    16     5     7    1
    17     7    35    1
    18    35    36    1
    19    36    37    1
    20    37    38    2
    21    37    39   am
    22    39    40    1
    23     7     8   am
    24     8     9    2
    25     8    10    1
    26    10    11    1
    27    10    27    1
    28    27    28   ar
    29    28    29   ar
    30    29    30    1
    31    29    31   ar
    32    31    32   ar
    33    32    33    1
    34    32    34   ar
    35    10    12    1
    36    20    13   ar
    37     6     1   ar
    38    34    27   ar
    39    12     4    1
    40    16    21    1
    41    16    22    1
    42    19    23    1
    43    19    24    1
    44    39    41    1
@<TRIPOS>MOLECULE
*****
 41 44 0 0 0
SMALL
GASTEIGER

@<TRIPOS>ATOM
      1 C          64.6497   90.1347   13.6896 C.ar    1  UNL1        0.0053
      2 C          63.6586   90.4390   12.6057 C.ar    1  UNL1        0.0033
      3 C          62.9155   89.3226   11.9338 C.ar    1  UNL1        0.0382
      4 C          63.1637   87.9018   12.3458 C.ar    1  UNL1        0.1529
      5 C          64.1549   87.5974   13.4297 C.ar    1  UNL1        0.0881
      6 C          64.8979   88.7139   14.1016 C.ar    1  UNL1        0.0181
      7 N          64.4031   86.1766   13.8417 N.am    1  UNL1       -0.2524
      8 C          63.6601   85.0602   13.1698 C.2     1  UNL1        0.2697
      9 O          63.9083   83.6394   13.5818 O.2     1  UNL1       -0.2704
     10 C          62.6689   85.3645   12.0859 C.3     1  UNL1        0.2199
     11 C          61.6397   85.1495   11.0160 C.3     1  UNL1        0.0579
     12 O          62.4207   86.7853   11.6739 O.3     1  UNL1       -0.4686
     13 C          66.5278   91.9295   13.6534 C.ar    1  UNL1        0.0645
     14 N          67.2709   93.0459   14.3252 N.ar    1  UNL1       -0.2183
     15 C          66.8790   93.4840   15.7053 C.ar    1  UNL1        0.2145
     16 N          67.6220   94.6004   16.3772 N.pl3   1  UNL1       -0.3274
     17 N          65.7439   92.8056   16.4135 N.ar    1  UNL1       -0.1995
     18 C          65.0009   91.6891   15.7415 C.ar    1  UNL1        0.1293
     19 N          63.8658   91.0107   16.4497 N.pl3   1  UNL1       -0.3425
     20 C          65.3928   91.2511   14.3615 C.ar    1  UNL1        0.0449
     21 H          68.3670   95.0457   15.9124 H       1  UNL1        0.1452
     22 H          67.3648   94.8879   17.2829 H       1  UNL1        0.1452
     23 H          63.6086   91.2982   17.3554 H       1  UNL1        0.1437
     24 H          63.3781   90.2780   16.0087 H       1  UNL1        0.1437
     25 C          66.8228   92.4524   11.1255 C.3     1  UNL1        0.0067
     26 C          66.9198   91.4915   12.2733 C.3     1  UNL1        0.0460
     27 C          62.5596   83.8691   12.1263 C.ar    1  UNL1        0.0264
     28 C          61.9279   83.1949   13.3080 C.ar    1  UNL1        0.0293
     29 C          61.8187   81.6994   13.3485 C.ar    1  UNL1        0.1422
     30 F          61.1869   81.0253   14.5303 F       1  UNL1       -0.2041
     31 C          62.3412   80.8781   12.2073 C.ar    1  UNL1        0.0592
     32 C          62.9729   81.5523   11.0256 C.ar    1  UNL1        0.1422
     33 F          63.4954   80.7310    9.8844 F       1  UNL1       -0.2041
     34 C          63.0822   83.0478   10.9851 C.ar    1  UNL1        0.0293
     35 C          65.3943   85.8723   14.9256 C.3     1  UNL1        0.1080
     36 C          64.9181   85.3884   16.2632 C.3     1  UNL1        0.1069
     37 C          63.4804   85.5611   16.6548 C.2     1  UNL1        0.2243
     38 O          62.5439   84.3905   16.6057 O.2     1  UNL1       -0.2750
     39 N          62.9793   86.9045   17.0956 N.am    1  UNL1       -0.3026
     40 C          61.5417   87.0772   17.4872 C.3     1  UNL1        0.1107
     41 H          63.5940   87.6728   17.1278 H       1  UNL1        0.1495
@<TRIPOS>BOND
     1    25    26    1
     2    26    13    1
     3    13    14   ar
     4    14    15   ar
     5    15    16    1
     6    15    17   ar
     7    17    18   ar
     8    18    19    1
     9    18    20   ar
    10    20     1    1
    11     1     2   ar
    12     2     3   ar
    13     3     4   ar
    14     4     5   ar
    15     5     6   ar
    16     5     7    1
    17     7    35    1
    18    35    36    1
    19    36    37    1
    20    37    38    2
    21    37    39   am
    22    39    40    1
    23     7     8   am
    24     8     9    2
    25     8    10    1
    26    10    11    1
    27    10    27    1
    28    27    28   ar
    29    28    29   ar
    30    29    30    1
    31    29    31   ar
    32    31    32   ar
    33    32    33    1
    34    32    34   ar
    35    10    12    1
    36    20    13   ar
    37     6     1   ar
    38    34    27   ar
    39    12     4    1
    40    16    21    1
    41    16    22    1
    42    19    23    1
    43    19    24    1
    44    39    41    1
@<TRIPOS>MOLECULE
*****
 41 44 0 0 0
SMALL
GASTEIGER

@<TRIPOS>ATOM
      1 C          63.6579   88.9861   13.7162 C.ar    1  UNL1        0.0053
      2 C          63.1289   89.2505   12.3377 C.ar    1  UNL1        0.0033
      3 C          62.7741   88.1040   11.4380 C.ar    1  UNL1        0.0382
      4 C          62.9482   86.6931   11.9167 C.ar    1  UNL1        0.1529
      5 C          63.4771   86.4288   13.2952 C.ar    1  UNL1        0.0881
      6 C          63.8320   87.5753   14.1949 C.ar    1  UNL1        0.0181
      7 N          63.6512   85.0179   13.7739 N.am    1  UNL1       -0.2524
      8 C          63.2963   83.8714   12.8742 C.2     1  UNL1        0.2697
      9 O          63.4704   82.4606   13.3529 O.2     1  UNL1       -0.2704
     10 C          62.7673   84.1358   11.4956 C.3     1  UNL1        0.2199
     11 C          62.2346   83.8792   10.1171 C.3     1  UNL1        0.0579
     12 O          62.5932   85.5466   11.0169 O.3     1  UNL1       -0.4686
     13 C          64.9692   91.1877   14.1447 C.ar    1  UNL1        0.0645
     14 N          65.3241   92.3342   15.0444 N.ar    1  UNL1       -0.2183
     15 C          64.7226   92.4256   16.4156 C.ar    1  UNL1        0.2145
     16 N          65.0775   93.5721   17.3153 N.pl3   1  UNL1       -0.3274
     17 N          63.7662   91.3706   16.8869 N.ar    1  UNL1       -0.1995
     18 C          63.4113   90.2240   15.9870 C.ar    1  UNL1        0.1293
     19 N          62.4549   89.1690   16.4584 N.pl3   1  UNL1       -0.3425
     20 C          64.0128   90.1326   14.6160 C.ar    1  UNL1        0.0449
     21 H          65.7053   94.2646   17.0060 H       1  UNL1        0.1452
     22 H          64.6828   93.6321   18.2152 H       1  UNL1        0.1452
     23 H          62.0602   89.2290   17.3582 H       1  UNL1        0.1437
     24 H          62.2220   88.4165   15.8678 H       1  UNL1        0.1437
     25 C          65.6298   92.3127   11.8979 C.3     1  UNL1        0.0067
     26 C          65.5707   91.0962   12.7736 C.3     1  UNL1        0.0460
     27 C          62.7564   82.6358   11.4956 C.ar    1  UNL1        0.0264
     28 C          63.3191   81.8817   10.3274 C.ar    1  UNL1        0.0293
     29 C          63.3081   80.3817   10.3275 C.ar    1  UNL1        0.1422
     30 F          63.8708   79.6276    9.1591 F       1  UNL1       -0.2041
     31 C          62.7346   79.6359   11.4956 C.ar    1  UNL1        0.0592
     32 C          62.1719   80.3900   12.6638 C.ar    1  UNL1        0.1422
     33 F          61.5983   79.6441   13.8320 F       1  UNL1       -0.2041
     34 C          62.1828   81.8900   12.6639 C.ar    1  UNL1        0.0293
     35 C          64.1802   84.7536   15.1524 C.3     1  UNL1        0.1080
     36 C          63.2362   84.3977   16.2625 C.3     1  UNL1        0.1069
     37 C          62.5439   85.4814   17.0347 C.2     1  UNL1        0.2243
     38 O          61.1455   85.8848   16.6718 O.2     1  UNL1       -0.2750
     39 N          63.2501   86.1618   18.1698 N.am    1  UNL1       -0.3026
     40 C          62.5579   87.2455   18.9420 C.3     1  UNL1        0.1107
     41 H          64.1679   85.8970   18.4080 H       1  UNL1        0.1495
@<TRIPOS>BOND
     1    25    26    1
     2    26    13    1
     3    13    14   ar
     4    14    15   ar
     5    15    16    1
     6    15    17   ar
     7    17    18   ar
     8    18    19    1
     9    18    20   ar
    10    20     1    1
    11     1     2   ar
    12     2     3   ar
    13     3     4   ar
    14     4     5   ar
    15     5     6   ar
    16     5     7    1
    17     7    35    1
    18    35    36    1
    19    36    37    1
    20    37    38    2
    21    37    39   am
    22    39    40    1
    23     7     8   am
    24     8     9    2
    25     8    10    1
    26    10    11    1
    27    10    27    1
    28    27    28   ar
    29    28    29   ar
    30    29    30    1
    31    29    31   ar
    32    31    32   ar
    33    32    33    1
    34    32    34   ar
    35    10    12    1
    36    20    13   ar
    37     6     1   ar
    38    34    27   ar
    39    12     4    1
    40    16    21    1
    41    16    22    1
    42    19    23    1
    43    19    24    1
    44    39    41    1
