@<TRIPOS>MOLECULE
*****
 25 28 0 0 0
SMALL
GASTEIGER

@<TRIPOS>ATOM
      1 C          63.0434   89.1492   11.9251 C.2     1  UNL1        0.1203
      2 C          62.2728   88.8070   10.6846 C.2     1  UNL1        0.0299
      3 C          61.9706   87.3738   10.3609 C.2     1  UNL1       -0.0018
      4 C          61.2000   87.0315    9.1203 C.3     1  UNL1        0.0327
      5 C          62.4391   86.2829   11.2778 C.ar    1  UNL1        0.0754
      6 N          62.1369   84.8497   10.9540 N.ar    1  UNL1       -0.2257
      7 C          62.6054   83.7589   11.8709 C.ar    1  UNL1        0.1846
      8 N          62.4586   82.2673   11.8132 N.2     1  UNL1       -0.1288
      9 N          63.1385   81.6877   13.0181 N.2     1  UNL1       -0.1508
     10 C          63.7055   82.8212   13.8205 C.2     1  UNL1        0.0837
     11 C          64.4681   82.6964   15.1061 C.3     1  UNL1        0.0541
     12 C          63.3760   84.1013   13.1114 C.ar    1  UNL1        0.0513
     13 C          63.6782   85.5344   13.4351 C.ar    1  UNL1        0.0153
     14 C          63.2097   86.6252   12.5183 C.ar    1  UNL1        0.0017
     15 C          63.5119   88.0584   12.8420 C.3     1  UNL1        0.0914
     16 C          64.4488   85.8768   14.6757 C.3     1  UNL1        0.2094
     17 O          65.9314   85.6534   14.7232 O.3     1  UNL1       -0.3718
     18 H          66.2303   85.2856   13.8768 H       1  UNL1        0.2114
     19 C          63.7370   86.4425   15.8686 C.ar    1  UNL1        0.2372
     20 N          63.0779   85.6511   16.9592 N.ar    1  UNL1       -0.2080
     21 C          62.4928   86.6183   17.9450 C.ar    1  UNL1        0.1424
     22 C          62.7903   88.0076   17.4638 C.ar    1  UNL1        0.2019
     23 O          63.5592   87.8988   16.1805 O.2     1  UNL1       -0.4324
     24 C          64.2301   90.9180   13.4130 C.3     1  UNL1        0.2520
     25 O          63.3456   90.5824   12.2488 O.2     1  UNL1       -0.4754
@<TRIPOS>BOND
     1    24    25    1
     2    25     1    1
     3     1     2    2
     4     2     3    1
     5     3     4    1
     6     3     5    2
     7     5     6   ar
     8     6     7   ar
     9     7     8    1
    10     8     9    2
    11     9    10    1
    12    10    11    1
    13    10    12    2
    14    12    13   ar
    15    13    16    1
    16    16    17    1
    17    16    19    1
    18    19    20   ar
    19    20    21   ar
    20    21    22   ar
    21    22    23   ar
    22    13    14   ar
    23    14    15    1
    24    15     1    1
    25    14     5   ar
    26    12     7   ar
    27    23    19   ar
    28    17    18    1
@<TRIPOS>MOLECULE
*****
 25 28 0 0 0
SMALL
GASTEIGER

@<TRIPOS>ATOM
      1 C          62.7043   83.4527   12.4219 C.2     1  UNL1        0.1203
      2 C          63.6541   83.7753   13.5372 C.2     1  UNL1        0.0299
      3 C          64.0225   85.2016   13.8195 C.2     1  UNL1       -0.0018
      4 C          64.9723   85.5243   14.9348 C.3     1  UNL1        0.0327
      5 C          63.4411   86.3054   12.9866 C.ar    1  UNL1        0.0754
      6 N          63.8095   87.7319   13.2690 N.ar    1  UNL1       -0.2257
      7 C          63.2281   88.8356   12.4361 C.ar    1  UNL1        0.1846
      8 N          63.4047   90.3245   12.4785 N.2     1  UNL1       -0.1288
      9 N          62.5640   90.9221   11.3894 N.2     1  UNL1       -0.1508
     10 C          61.8679   89.8025   10.6740 C.2     1  UNL1        0.0837
     11 C          60.9265   89.9472    9.5151 C.3     1  UNL1        0.0541
     12 C          62.2783   88.5129   11.3209 C.ar    1  UNL1        0.0513
     13 C          61.9099   87.0866   11.0385 C.ar    1  UNL1        0.0153
     14 C          62.4913   85.9829   11.8714 C.ar    1  UNL1        0.0017
     15 C          62.1229   84.5564   11.5890 C.3     1  UNL1        0.0914
     16 C          60.9601   86.7639    9.9233 C.3     1  UNL1        0.2094
     17 O          59.5225   87.1819   10.0179 O.3     1  UNL1       -0.3718
     18 H          59.3753   87.6462   10.8567 H       1  UNL1        0.2114
     19 C          61.4478   86.0234    8.7134 C.ar    1  UNL1        0.2372
     20 N          60.6175   85.6253    7.5294 N.ar    1  UNL1       -0.2080
     21 C          61.5079   84.9068    6.5593 C.ar    1  UNL1        0.1424
     22 C          62.8886   84.8610    7.1439 C.ar    1  UNL1        0.2019
     23 O          62.8513   85.5511    8.4752 O.2     1  UNL1       -0.4324
     24 C          62.4975   80.9846   13.2067 C.3     1  UNL1        0.2520
     25 O          62.3359   82.0263   12.1395 O.2     1  UNL1       -0.4754
@<TRIPOS>BOND
     1    24    25    1
     2    25     1    1
     3     1     2    2
     4     2     3    1
     5     3     4    1
     6     3     5    2
     7     5     6   ar
     8     6     7   ar
     9     7     8    1
    10     8     9    2
    11     9    10    1
    12    10    11    1
    13    10    12    2
    14    12    13   ar
    15    13    16    1
    16    16    17    1
    17    16    19    1
    18    19    20   ar
    19    20    21   ar
    20    21    22   ar
    21    22    23   ar
    22    13    14   ar
    23    14    15    1
    24    15     1    1
    25    14     5   ar
    26    12     7   ar
    27    23    19   ar
    28    17    18    1
@<TRIPOS>MOLECULE
*****
 25 28 0 0 0
SMALL
GASTEIGER

@<TRIPOS>ATOM
      1 C          61.0084   85.9805    8.3970 C.2     1  UNL1        0.1203
      2 C          60.6925   87.4333    8.5961 C.2     1  UNL1        0.0299
      3 C          61.1883   88.1479    9.8182 C.2     1  UNL1       -0.0018
      4 C          60.8725   89.6007   10.0173 C.3     1  UNL1        0.0327
      5 C          61.9999   87.4097   10.8412 C.ar    1  UNL1        0.0754
      6 N          62.4957   88.1244   12.0633 N.ar    1  UNL1       -0.2257
      7 C          63.3073   87.3862   13.0862 C.ar    1  UNL1        0.1846
      8 N          63.9275   87.8222   14.3805 N.2     1  UNL1       -0.1288
      9 N          64.6267   86.6389   14.9812 N.2     1  UNL1       -0.1508
     10 C          64.4385   85.4715   14.0583 C.2     1  UNL1        0.0837
     11 C          64.9721   84.0857   14.2694 C.3     1  UNL1        0.0541
     12 C          63.6231   85.9334   12.8871 C.ar    1  UNL1        0.0513
     13 C          63.1273   85.2188   11.6650 C.ar    1  UNL1        0.0153
     14 C          62.3157   85.9570   10.6420 C.ar    1  UNL1        0.0017
     15 C          61.8200   85.2423    9.4199 C.3     1  UNL1        0.0914
     16 C          63.4431   83.7660   11.4658 C.3     1  UNL1        0.2094
     17 O          64.3900   83.3462   10.3807 O.3     1  UNL1       -0.3718
     18 H          64.7050   84.1307    9.9051 H       1  UNL1        0.2114
     19 C          62.8121   82.7330   12.3517 C.ar    1  UNL1        0.2372
     20 N          62.8397   81.2492   12.1339 N.ar    1  UNL1       -0.2080
     21 C          62.0874   80.6016   13.2584 C.ar    1  UNL1        0.1424
     22 C          61.5949   81.6852   14.1713 C.ar    1  UNL1        0.2019
     23 O          62.0428   83.0025   13.6108 O.2     1  UNL1       -0.4324
     24 C          61.4764   84.5229    6.2978 C.3     1  UNL1        0.2520
     25 O          60.5126   85.2659    7.1749 O.2     1  UNL1       -0.4754
@<TRIPOS>BOND
     1    24    25    1
     2    25     1    1
     3     1     2    2
     4     2     3    1
     5     3     4    1
     6     3     5    2
     7     5     6   ar
     8     6     7   ar
     9     7     8    1
    10     8     9    2
    11     9    10    1
    12    10    11    1
    13    10    12    2
    14    12    13   ar
    15    13    16    1
    16    16    17    1
    17    16    19    1
    18    19    20   ar
    19    20    21   ar
    20    21    22   ar
    21    22    23   ar
    22    13    14   ar
    23    14    15    1
    24    15     1    1
    25    14     5   ar
    26    12     7   ar
    27    23    19   ar
    28    17    18    1
@<TRIPOS>MOLECULE
*****
 25 28 0 0 0
SMALL
GASTEIGER

@<TRIPOS>ATOM
      1 C          64.0374   90.6671   13.4379 C.2     1  UNL1        0.1203
      2 C          63.3539   90.9702   12.1375 C.2     1  UNL1        0.0299
      3 C          62.8057   89.8529   11.3002 C.2     1  UNL1       -0.0018
      4 C          62.1222   90.1558    9.9998 C.3     1  UNL1        0.0327
      5 C          62.9409   88.4325   11.7634 C.ar    1  UNL1        0.0754
      6 N          62.3926   87.3152   10.9260 N.ar    1  UNL1       -0.2257
      7 C          62.5278   85.8949   11.3892 C.ar    1  UNL1        0.1846
      8 N          62.0897   84.5952   10.7819 N.2     1  UNL1       -0.1288
      9 N          62.5025   83.4889   11.7070 N.2     1  UNL1       -0.1508
     10 C          63.1956   84.1050   12.8861 C.2     1  UNL1        0.0837
     11 C          63.7718   83.3640   14.0561 C.3     1  UNL1        0.0541
     12 C          63.2112   85.5920   12.6897 C.ar    1  UNL1        0.0513
     13 C          63.7594   86.7093   13.5269 C.ar    1  UNL1        0.0153
     14 C          63.6243   88.1295   13.0638 C.ar    1  UNL1        0.0017
     15 C          64.1725   89.2468   13.9011 C.3     1  UNL1        0.0914
     16 C          64.4429   86.4063   14.8274 C.3     1  UNL1        0.2094
     17 O          65.8346   85.8464   14.8307 O.3     1  UNL1       -0.3718
     18 H          66.1432   85.7420   13.9171 H       1  UNL1        0.2114
     19 C          63.7347   86.6632   16.1245 C.ar    1  UNL1        0.2372
     20 N          63.2496   87.9949   16.6154 N.ar    1  UNL1       -0.2080
     21 C          62.6024   87.7883   17.9527 C.ar    1  UNL1        0.1424
     22 C          62.6875   86.3287   18.2883 C.ar    1  UNL1        0.2019
     23 O          63.3874   85.6334   17.1583 O.2     1  UNL1       -0.4324
     24 C          65.9777   91.6949   14.8269 C.3     1  UNL1        0.2520
     25 O          64.5856   91.7844   14.2752 O.2     1  UNL1       -0.4754
@<TRIPOS>BOND
     1    24    25    1
     2    25     1    1
     3     1     2    2
     4     2     3    1
     5     3     4    1
     6     3     5    2
     7     5     6   ar
     8     6     7   ar
     9     7     8    1
    10     8     9    2
    11     9    10    1
    12    10    11    1
    13    10    12    2
    14    12    13   ar
    15    13    16    1
    16    16    17    1
    17    16    19    1
    18    19    20   ar
    19    20    21   ar
    20    21    22   ar
    21    22    23   ar
    22    13    14   ar
    23    14    15    1
    24    15     1    1
    25    14     5   ar
    26    12     7   ar
    27    23    19   ar
    28    17    18    1
@<TRIPOS>MOLECULE
*****
 25 28 0 0 0
SMALL
GASTEIGER

@<TRIPOS>ATOM
      1 C          63.9128   85.7885   13.6903 C.2     1  UNL1        0.1203
      2 C          63.9681   84.4599   12.9962 C.2     1  UNL1        0.0299
      3 C          63.2851   84.2758   11.6735 C.2     1  UNL1       -0.0018
      4 C          63.3404   82.9472   10.9793 C.3     1  UNL1        0.0327
      5 C          62.5468   85.4203   11.0449 C.ar    1  UNL1        0.0754
      6 N          61.8637   85.2361    9.7221 N.ar    1  UNL1       -0.2257
      7 C          61.1254   86.3806    9.0936 C.ar    1  UNL1        0.1846
      8 N          60.3621   86.4974    7.8076 N.2     1  UNL1       -0.1288
      9 N          59.8350   87.8981    7.7071 N.2     1  UNL1       -0.1508
     10 C          60.2726   88.6471    8.9308 C.2     1  UNL1        0.0837
     11 C          59.9665   90.0820    9.2428 C.3     1  UNL1        0.0541
     12 C          61.0702   87.7092    9.7877 C.ar    1  UNL1        0.0513
     13 C          61.7532   87.8933   11.1104 C.ar    1  UNL1        0.0153
     14 C          62.4915   86.7488   11.7390 C.ar    1  UNL1        0.0017
     15 C          63.1745   86.9330   13.0618 C.3     1  UNL1        0.0914
     16 C          61.6980   89.2219   11.8046 C.3     1  UNL1        0.2094
     17 O          60.5414   89.5523   12.7010 O.3     1  UNL1       -0.3718
     18 H          59.9239   88.8044   12.7210 H       1  UNL1        0.2114
     19 C          62.7992   90.2201   11.6025 C.ar    1  UNL1        0.2372
     20 N          63.1256   90.9250   10.3193 N.ar    1  UNL1       -0.2080
     21 C          64.2954   91.8292   10.5717 C.ar    1  UNL1        0.1424
     22 C          64.6921   91.6831   12.0110 C.ar    1  UNL1        0.2019
     23 O          63.7673   90.6886   12.6479 O.2     1  UNL1       -0.4324
     24 C          63.8551   85.6871   16.2858 C.3     1  UNL1        0.2520
     25 O          64.5959   85.9726   15.0130 O.2     1  UNL1       -0.4754
@<TRIPOS>BOND
     1    24    25    1
     2    25     1    1
     3     1     2    2
     4     2     3    1
     5     3     4    1
     6     3     5    2
     7     5     6   ar
     8     6     7   ar
     9     7     8    1
    10     8     9    2
    11     9    10    1
    12    10    11    1
    13    10    12    2
    14    12    13   ar
    15    13    16    1
    16    16    17    1
    17    16    19    1
    18    19    20   ar
    19    20    21   ar
    20    21    22   ar
    21    22    23   ar
    22    13    14   ar
    23    14    15    1
    24    15     1    1
    25    14     5   ar
    26    12     7   ar
    27    23    19   ar
    28    17    18    1
@<TRIPOS>MOLECULE
*****
 25 28 0 0 0
SMALL
GASTEIGER

@<TRIPOS>ATOM
      1 C          63.8249   84.9666   13.3331 C.2     1  UNL1        0.1203
      2 C          64.2988   83.7458   12.6016 C.2     1  UNL1        0.0299
      3 C          63.8746   83.5101   11.1823 C.2     1  UNL1       -0.0018
      4 C          64.3483   82.2893   10.4507 C.3     1  UNL1        0.0327
      5 C          62.9765   84.4954   10.4944 C.ar    1  UNL1        0.0754
      6 N          62.5524   84.2597    9.0750 N.ar    1  UNL1       -0.2257
      7 C          61.6544   85.2449    8.3873 C.ar    1  UNL1        0.1846
      8 N          61.0748   85.2791    7.0042 N.2     1  UNL1       -0.1288
      9 N          60.2429   86.5212    6.8810 N.2     1  UNL1       -0.1508
     10 C          60.3082   87.2545    8.1879 C.2     1  UNL1        0.0837
     11 C          59.6217   88.5493    8.5076 C.3     1  UNL1        0.0541
     12 C          61.1806   86.4657    9.1188 C.ar    1  UNL1        0.0513
     13 C          61.6048   86.7013   10.5382 C.ar    1  UNL1        0.0153
     14 C          62.5028   85.7161   11.2259 C.ar    1  UNL1        0.0017
     15 C          62.9270   85.9518   12.6453 C.3     1  UNL1        0.0914
     16 C          61.1310   87.9221   11.2697 C.3     1  UNL1        0.2094
     17 O          59.7751   87.9330   11.9113 O.3     1  UNL1       -0.3718
     18 H          59.3391   87.0798   11.7603 H       1  UNL1        0.2114
     19 C          62.0131   89.1320   11.3598 C.ar    1  UNL1        0.2372
     20 N          62.6495   89.6682   12.6078 N.ar    1  UNL1       -0.2080
     21 C          63.4433   90.8856   12.2370 C.ar    1  UNL1        0.1424
     22 C          63.2976   91.1019   10.7598 C.ar    1  UNL1        0.2019
     23 O          62.4136   90.0180   10.2177 O.2     1  UNL1       -0.4324
     24 C          64.3296   86.6008   15.2889 C.3     1  UNL1        0.2520
     25 O          64.2491   85.2022   14.7524 O.2     1  UNL1       -0.4754
@<TRIPOS>BOND
     1    24    25    1
     2    25     1    1
     3     1     2    2
     4     2     3    1
     5     3     4    1
     6     3     5    2
     7     5     6   ar
     8     6     7   ar
     9     7     8    1
    10     8     9    2
    11     9    10    1
    12    10    11    1
    13    10    12    2
    14    12    13   ar
    15    13    16    1
    16    16    17    1
    17    16    19    1
    18    19    20   ar
    19    20    21   ar
    20    21    22   ar
    21    22    23   ar
    22    13    14   ar
    23    14    15    1
    24    15     1    1
    25    14     5   ar
    26    12     7   ar
    27    23    19   ar
    28    17    18    1
@<TRIPOS>MOLECULE
*****
 25 28 0 0 0
SMALL
GASTEIGER

@<TRIPOS>ATOM
      1 C          59.8676   92.3414    3.8991 C.2     1  UNL1        0.1203
      2 C          61.1503   91.5920    4.1063 C.2     1  UNL1        0.0299
      3 C          62.2797   91.7547    3.1326 C.2     1  UNL1       -0.0018
      4 C          63.5624   91.0053    3.3398 C.3     1  UNL1        0.0327
      5 C          62.1263   92.6669    1.9517 C.ar    1  UNL1        0.0754
      6 N          63.2557   92.8296    0.9780 N.ar    1  UNL1       -0.2257
      7 C          63.1023   93.7418   -0.2028 C.ar    1  UNL1        0.1846
      8 N          64.0346   94.1004   -1.3218 N.2     1  UNL1       -0.1288
      9 N          63.3280   95.0715   -2.2205 N.2     1  UNL1       -0.1508
     10 C          61.9590   95.3131   -1.6570 C.2     1  UNL1        0.0837
     11 C          60.9132   96.2176   -2.2384 C.3     1  UNL1        0.0541
     12 C          61.8195   94.4912   -0.4099 C.ar    1  UNL1        0.0513
     13 C          60.6902   94.3285    0.5638 C.ar    1  UNL1        0.0153
     14 C          60.8436   93.4163    1.7446 C.ar    1  UNL1        0.0017
     15 C          59.7142   93.2536    2.7183 C.3     1  UNL1        0.0914
     16 C          59.4074   95.0779    0.3566 C.3     1  UNL1        0.2094
     17 O          59.2535   96.4666    0.9027 O.3     1  UNL1       -0.3718
     18 H          60.0692   96.7270    1.3585 H       1  UNL1        0.2114
     19 C          58.2786   94.4388   -0.3966 C.ar    1  UNL1        0.2372
     20 N          57.1849   95.1611   -1.1260 N.ar    1  UNL1       -0.2080
     21 C          56.2757   94.1339   -1.7329 C.ar    1  UNL1        0.1424
     22 C          56.8076   92.7768   -1.3786 C.ar    1  UNL1        0.2019
     23 O          58.0455   92.9654   -0.5527 O.2     1  UNL1       -0.4324
     24 C          58.5063   90.8543    5.5378 C.3     1  UNL1        0.2520
     25 O          58.7382   92.1787    4.8728 O.2     1  UNL1       -0.4754
@<TRIPOS>BOND
     1    24    25    1
     2    25     1    1
     3     1     2    2
     4     2     3    1
     5     3     4    1
     6     3     5    2
     7     5     6   ar
     8     6     7   ar
     9     7     8    1
    10     8     9    2
    11     9    10    1
    12    10    11    1
    13    10    12    2
    14    12    13   ar
    15    13    16    1
    16    16    17    1
    17    16    19    1
    18    19    20   ar
    19    20    21   ar
    20    21    22   ar
    21    22    23   ar
    22    13    14   ar
    23    14    15    1
    24    15     1    1
    25    14     5   ar
    26    12     7   ar
    27    23    19   ar
    28    17    18    1
@<TRIPOS>MOLECULE
*****
 25 28 0 0 0
SMALL
GASTEIGER

@<TRIPOS>ATOM
      1 C          59.9242   92.9138    2.3846 C.2     1  UNL1        0.1203
      2 C          61.3849   92.6746    2.6277 C.2     1  UNL1        0.0299
      3 C          62.3717   92.8661    1.5143 C.2     1  UNL1       -0.0018
      4 C          63.8324   92.6270    1.7573 C.3     1  UNL1        0.0327
      5 C          61.8977   93.2968    0.1578 C.ar    1  UNL1        0.0754
      6 N          62.8845   93.4883   -0.9556 N.ar    1  UNL1       -0.2257
      7 C          62.4105   93.9189   -2.3120 C.ar    1  UNL1        0.1846
      8 N          63.1435   94.1867   -3.5930 N.2     1  UNL1       -0.1288
      9 N          62.1358   94.5913   -4.6278 N.2     1  UNL1       -0.1508
     10 C          60.7800   94.5736   -3.9863 C.2     1  UNL1        0.0837
     11 C          59.4822   94.9121   -4.6581 C.3     1  UNL1        0.0541
     12 C          60.9498   94.1581   -2.5550 C.ar    1  UNL1        0.0513
     13 C          59.9630   93.9666   -1.4416 C.ar    1  UNL1        0.0153
     14 C          60.4370   93.5359   -0.0852 C.ar    1  UNL1        0.0017
     15 C          59.4502   93.3444    1.0282 C.3     1  UNL1        0.0914
     16 C          58.5023   94.2057   -1.6846 C.3     1  UNL1        0.2094
     17 O          57.9106   95.5595   -1.4252 O.3     1  UNL1       -0.3718
     18 H          58.6031   96.1595   -1.1069 H       1  UNL1        0.2114
     19 C          57.6332   93.0911   -2.1871 C.ar    1  UNL1        0.2372
     20 N          56.4292   92.5295   -1.4907 N.ar    1  UNL1       -0.2080
     21 C          55.8675   91.4338   -2.3473 C.ar    1  UNL1        0.1424
     22 C          56.7243   91.3182   -3.5731 C.ar    1  UNL1        0.2019
     23 O          57.8156   92.3426   -3.4740 O.2     1  UNL1       -0.4324
     24 C          59.3015   91.8830    4.6868 C.3     1  UNL1        0.2520
     25 O          58.9374   92.7223    3.4980 O.2     1  UNL1       -0.4754
@<TRIPOS>BOND
     1    24    25    1
     2    25     1    1
     3     1     2    2
     4     2     3    1
     5     3     4    1
     6     3     5    2
     7     5     6   ar
     8     6     7   ar
     9     7     8    1
    10     8     9    2
    11     9    10    1
    12    10    11    1
    13    10    12    2
    14    12    13   ar
    15    13    16    1
    16    16    17    1
    17    16    19    1
    18    19    20   ar
    19    20    21   ar
    20    21    22   ar
    21    22    23   ar
    22    13    14   ar
    23    14    15    1
    24    15     1    1
    25    14     5   ar
    26    12     7   ar
    27    23    19   ar
    28    17    18    1
@<TRIPOS>MOLECULE
*****
 25 28 0 0 0
SMALL
GASTEIGER

@<TRIPOS>ATOM
      1 C          60.5711   87.6294    9.7863 C.2     1  UNL1        0.1203
      2 C          60.7035   87.0332    8.4162 C.2     1  UNL1        0.0299
      3 C          61.5489   85.8117    8.2083 C.2     1  UNL1       -0.0018
      4 C          61.6813   85.2155    6.8383 C.3     1  UNL1        0.0327
      5 C          62.2620   85.1864    9.3706 C.ar    1  UNL1        0.0754
      6 N          63.1075   83.9649    9.1626 N.ar    1  UNL1       -0.2257
      7 C          63.8205   83.3397   10.3248 C.ar    1  UNL1        0.1846
      8 N          64.7172   82.1414   10.4254 N.2     1  UNL1       -0.1288
      9 N          65.1390   81.9971   11.8576 N.2     1  UNL1       -0.1508
     10 C          64.5030   83.1061   12.6422 C.2     1  UNL1        0.0837
     11 C          64.6551   83.3437   14.1154 C.3     1  UNL1        0.0541
     12 C          63.6881   83.9359   11.6948 C.ar    1  UNL1        0.0513
     13 C          62.8427   85.1574   11.9027 C.ar    1  UNL1        0.0153
     14 C          62.1296   85.7826   10.7405 C.ar    1  UNL1        0.0017
     15 C          61.2841   87.0041   10.9484 C.3     1  UNL1        0.0914
     16 C          62.7102   85.7536   13.2727 C.3     1  UNL1        0.2094
     17 O          61.9574   85.0178   14.3414 O.3     1  UNL1       -0.3718
     18 H          61.6234   84.1805   13.9834 H       1  UNL1        0.2114
     19 C          63.3306   87.0857   13.5741 C.ar    1  UNL1        0.2372
     20 N          64.1143   87.4350   14.8044 N.ar    1  UNL1       -0.2080
     21 C          64.5443   88.8674   14.6889 C.ar    1  UNL1        0.1424
     22 C          64.0262   89.4033   13.3871 C.ar    1  UNL1        0.2019
     23 O          63.2761   88.3020   12.6982 O.2     1  UNL1       -0.4324
     24 C          60.3098   90.0636   10.6560 C.3     1  UNL1        0.2520
     25 O          59.7257   88.8508    9.9941 O.2     1  UNL1       -0.4754
@<TRIPOS>BOND
     1    24    25    1
     2    25     1    1
     3     1     2    2
     4     2     3    1
     5     3     4    1
     6     3     5    2
     7     5     6   ar
     8     6     7   ar
     9     7     8    1
    10     8     9    2
    11     9    10    1
    12    10    11    1
    13    10    12    2
    14    12    13   ar
    15    13    16    1
    16    16    17    1
    17    16    19    1
    18    19    20   ar
    19    20    21   ar
    20    21    22   ar
    21    22    23   ar
    22    13    14   ar
    23    14    15    1
    24    15     1    1
    25    14     5   ar
    26    12     7   ar
    27    23    19   ar
    28    17    18    1
