@<TRIPOS>MOLECULE
*****
 43 46 0 0 0
SMALL
GASTEIGER

@<TRIPOS>ATOM
      1 N          62.9302   90.0049   11.7643 N.3     1  UNL1       -0.2699
      2 C          64.2641   91.9241   10.6296 C.3     1  UNL1        0.0188
      3 C          63.1711   90.8977   10.5834 C.3     1  UNL1        0.0722
      4 C          62.8204   90.5936   13.1396 C.3     1  UNL1        0.0924
      5 C          63.9169   90.3740   14.1393 C.3     1  UNL1        0.0950
      6 N          65.3424   90.6483   13.7613 N.am    1  UNL1       -0.2706
      7 C          66.0618   91.8246   14.3517 C.2     1  UNL1        0.4021
      8 O          65.3557   92.7267   15.3200 O.2     1  UNL1       -0.2264
      9 H          65.8058   90.0562   13.1258 H       1  UNL1        0.1527
     10 O          67.4872   92.0988   13.9738 O.3     1  UNL1       -0.4244
     11 C          67.9621   91.8122   12.5800 C.3     1  UNL1        0.2943
     12 C          67.6753   92.7851   11.4750 C.ar    1  UNL1        0.2509
     13 N          68.1264   92.6590   10.0500 N.ar    1  UNL1       -0.2072
     14 C          67.6170   93.8509    9.2953 C.ar    1  UNL1        0.1425
     15 C          66.8511   94.7138   10.2539 C.ar    1  UNL1        0.2019
     16 O          66.8871   94.0551   11.6010 O.2     1  UNL1       -0.4316
     17 C          63.5879   89.8800   15.5169 C.3     1  UNL1        0.0474
     18 C          63.6126   88.4096   15.8122 C.ar    1  UNL1       -0.0205
     19 C          64.3095   87.4681   14.8754 C.ar    1  UNL1       -0.0042
     20 C          64.3342   85.9977   15.1707 C.ar    1  UNL1       -0.0003
     21 C          63.6619   85.4688   16.4029 C.ar    1  UNL1       -0.0000
     22 C          62.9650   86.4103   17.3398 C.ar    1  UNL1       -0.0003
     23 C          62.9403   87.8808   17.0444 C.ar    1  UNL1       -0.0042
     24 C          62.7992   88.5233   11.5701 C.3     1  UNL1        0.0924
     25 C          61.5395   87.9514   10.9904 C.3     1  UNL1        0.0950
     26 N          60.6402   88.8127   10.1543 N.am    1  UNL1       -0.2706
     27 C          60.2053   88.3465    8.7965 C.2     1  UNL1        0.4021
     28 O          60.6697   87.0191    8.2749 O.2     1  UNL1       -0.2264
     29 H          60.3353   89.6839   10.4966 H       1  UNL1        0.1527
     30 O          59.3059   89.2078    7.9603 O.3     1  UNL1       -0.4262
     31 C          59.3913   89.1504    6.4638 C.3     1  UNL1        0.2753
     32 C          59.1649   90.3909    5.6515 C.ar    1  UNL1        0.1880
     33 C          57.8367   91.0252    5.3622 C.ar    1  UNL1        0.1389
     34 N          58.0778   92.2412    4.5178 N.ar    1  UNL1       -0.2028
     35 C          59.5550   92.3586    4.2852 C.ar    1  UNL1        0.2849
     36 O          60.2269   91.2150    4.9859 O.2     1  UNL1       -0.4317
     37 C          61.1792   86.5180   11.2470 C.3     1  UNL1        0.0474
     38 C          62.2224   85.4479   11.1186 C.ar    1  UNL1       -0.0205
     39 C          62.7552   84.7688   12.3455 C.ar    1  UNL1       -0.0042
     40 C          63.7984   83.6987   12.2171 C.ar    1  UNL1       -0.0003
     41 C          64.3089   83.3076   10.8619 C.ar    1  UNL1       -0.0000
     42 C          63.7761   83.9866    9.6351 C.ar    1  UNL1       -0.0003
     43 C          62.7329   85.0568    9.7635 C.ar    1  UNL1       -0.0042
@<TRIPOS>BOND
     1     2     3    1
     2     3     1    1
     3     1    24    1
     4    25    24    1
     5    25    37    1
     6    37    38    1
     7    38    39   ar
     8    39    40   ar
     9    40    41   ar
    10    41    42   ar
    11    42    43   ar
    12    25    26    1
    13    26    27   am
    14    27    28    2
    15    27    30    1
    16    30    31    1
    17    31    32    1
    18    32    33   ar
    19    33    34   ar
    20    34    35   ar
    21    35    36   ar
    22     1     4    1
    23     5     4    1
    24     5    17    1
    25    17    18    1
    26    18    19   ar
    27    19    20   ar
    28    20    21   ar
    29    21    22   ar
    30    22    23   ar
    31     5     6    1
    32     6     7   am
    33     7     8    2
    34     7    10    1
    35    10    11    1
    36    11    12    1
    37    12    13   ar
    38    13    14   ar
    39    14    15   ar
    40    15    16   ar
    41    43    38   ar
    42    36    32   ar
    43    23    18   ar
    44    16    12   ar
    45    26    29    1
    46     6     9    1
@<TRIPOS>MOLECULE
*****
 43 46 0 0 0
SMALL
GASTEIGER

@<TRIPOS>ATOM
      1 N          61.8885   89.3178   12.4065 N.3     1  UNL1       -0.2699
      2 C          60.1372   90.6188   10.9957 C.3     1  UNL1        0.0188
      3 C          60.4624   89.5657   12.0133 C.3     1  UNL1        0.0722
      4 C          62.6968   88.2818   11.6831 C.3     1  UNL1        0.0924
      5 C          62.0276   87.3459   10.7207 C.3     1  UNL1        0.0950
      6 N          61.8151   87.7618    9.2952 N.am    1  UNL1       -0.2706
      7 C          60.4278   87.8092    8.7266 C.2     1  UNL1        0.4021
      8 O          59.2531   87.4408    9.5835 O.2     1  UNL1       -0.2264
      9 H          62.5861   88.0036    8.7327 H       1  UNL1        0.1527
     10 O          60.2153   88.2250    7.3012 O.3     1  UNL1       -0.4244
     11 C          58.9424   88.9109    6.9018 C.3     1  UNL1        0.2943
     12 C          58.9841   90.0861    5.9706 C.ar    1  UNL1        0.2509
     13 N          57.8001   90.8691    5.4857 N.ar    1  UNL1       -0.2072
     14 C          58.3012   91.9515    4.5762 C.ar    1  UNL1        0.1425
     15 C          59.7950   91.8374    4.4989 C.ar    1  UNL1        0.2019
     16 O          60.2169   90.6845    5.3607 O.2     1  UNL1       -0.4316
     17 C          61.5710   85.9942   11.1836 C.3     1  UNL1        0.0474
     18 C          62.5550   84.8676   11.2946 C.ar    1  UNL1       -0.0205
     19 C          63.2197   84.3282   10.0628 C.ar    1  UNL1       -0.0042
     20 C          64.2036   83.2015   10.1738 C.ar    1  UNL1       -0.0003
     21 C          64.5230   82.6142   11.5167 C.ar    1  UNL1       -0.0000
     22 C          63.8583   83.1535   12.7484 C.ar    1  UNL1       -0.0003
     23 C          62.8743   84.2803   12.6374 C.ar    1  UNL1       -0.0042
     24 C          62.5064   90.1060   13.5232 C.3     1  UNL1        0.0924
     25 C          63.9906   90.3206   13.5580 C.3     1  UNL1        0.0950
     26 N          64.6103   91.4102   12.7342 N.am    1  UNL1       -0.2706
     27 C          65.3721   92.5154   13.4036 C.2     1  UNL1        0.4021
     28 O          65.5141   92.5311   14.8967 O.2     1  UNL1       -0.2264
     29 H          64.5171   91.3999   11.7542 H       1  UNL1        0.1527
     30 O          65.9919   93.6050   12.5798 O.3     1  UNL1       -0.4262
     31 C          65.7144   93.6824   11.1077 C.3     1  UNL1        0.2753
     32 C          66.7942   93.3461   10.1223 C.ar    1  UNL1        0.1880
     33 C          67.1707   94.1552    8.9167 C.ar    1  UNL1        0.1389
     34 N          68.2962   93.4509    8.2187 N.ar    1  UNL1       -0.2028
     35 C          68.6152   92.2063    8.9930 C.ar    1  UNL1        0.2849
     36 O          67.6869   92.1416   10.1694 O.2     1  UNL1       -0.4317
     37 C          64.8550   89.4455   14.4166 C.3     1  UNL1        0.0474
     38 C          64.2328   88.3709   15.2580 C.ar    1  UNL1       -0.0205
     39 C          64.4258   86.9282   14.8952 C.ar    1  UNL1       -0.0042
     40 C          63.8037   85.8535   15.7365 C.ar    1  UNL1       -0.0003
     41 C          62.9885   86.2214   16.9408 C.ar    1  UNL1       -0.0000
     42 C          62.7955   87.6640   17.3036 C.ar    1  UNL1       -0.0003
     43 C          63.4176   88.7387   16.4622 C.ar    1  UNL1       -0.0042
@<TRIPOS>BOND
     1     2     3    1
     2     3     1    1
     3     1    24    1
     4    25    24    1
     5    25    37    1
     6    37    38    1
     7    38    39   ar
     8    39    40   ar
     9    40    41   ar
    10    41    42   ar
    11    42    43   ar
    12    25    26    1
    13    26    27   am
    14    27    28    2
    15    27    30    1
    16    30    31    1
    17    31    32    1
    18    32    33   ar
    19    33    34   ar
    20    34    35   ar
    21    35    36   ar
    22     1     4    1
    23     5     4    1
    24     5    17    1
    25    17    18    1
    26    18    19   ar
    27    19    20   ar
    28    20    21   ar
    29    21    22   ar
    30    22    23   ar
    31     5     6    1
    32     6     7   am
    33     7     8    2
    34     7    10    1
    35    10    11    1
    36    11    12    1
    37    12    13   ar
    38    13    14   ar
    39    14    15   ar
    40    15    16   ar
    41    43    38   ar
    42    36    32   ar
    43    23    18   ar
    44    16    12   ar
    45    26    29    1
    46     6     9    1
@<TRIPOS>MOLECULE
*****
 43 46 0 0 0
SMALL
GASTEIGER

@<TRIPOS>ATOM
      1 N          61.6482   89.9521   11.4387 N.3     1  UNL1       -0.2699
      2 C          63.2822   91.4227   10.0540 C.3     1  UNL1        0.0188
      3 C          62.8686   90.0785   10.5758 C.3     1  UNL1        0.0722
      4 C          60.2935   89.8233   10.8076 C.3     1  UNL1        0.0924
      5 C          60.1043   88.9381    9.6116 C.3     1  UNL1        0.0950
      6 N          60.1430   89.5239    8.2312 N.am    1  UNL1       -0.2706
      7 C          59.3068   88.9259    7.1390 C.2     1  UNL1        0.4021
      8 O          58.4318   87.7421    7.4270 O.2     1  UNL1       -0.2264
      9 H          60.7173   90.3009    8.0421 H       1  UNL1        0.1527
     10 O          59.3455   89.5117    5.7587 O.3     1  UNL1       -0.4244
     11 C          59.0735   90.9729    5.5562 C.3     1  UNL1        0.2943
     12 C          59.7650   91.7188    4.4537 C.ar    1  UNL1        0.2509
     13 N          59.1219   92.6878    3.5063 N.ar    1  UNL1       -0.2072
     14 C          60.1805   93.1945    2.5721 C.ar    1  UNL1        0.1425
     15 C          61.4778   92.5387    2.9423 C.ar    1  UNL1        0.2019
     16 O          61.2210   91.6267    4.1052 O.2     1  UNL1       -0.4316
     17 C          59.8765   87.4670    9.7959 C.3     1  UNL1        0.0474
     18 C          61.0351   86.5159    9.7408 C.ar    1  UNL1       -0.0205
     19 C          61.5355   85.8697   10.9987 C.ar    1  UNL1       -0.0042
     20 C          62.6941   84.9187   10.9436 C.ar    1  UNL1       -0.0003
     21 C          63.3524   84.6138    9.6307 C.ar    1  UNL1       -0.0000
     22 C          62.8521   85.2599    8.3729 C.ar    1  UNL1       -0.0003
     23 C          61.6934   86.2110    8.4280 C.ar    1  UNL1       -0.0042
     24 C          61.7824   89.9545   12.9326 C.3     1  UNL1        0.0924
     25 C          63.1407   89.8717   13.5637 C.3     1  UNL1        0.0950
     26 N          63.8818   88.5677   13.5804 N.am    1  UNL1       -0.2706
     27 C          64.0356   87.8088   14.8651 C.2     1  UNL1        0.4021
     28 O          63.4483   88.3539   16.1331 O.2     1  UNL1       -0.2264
     29 H          64.2672   88.2099   12.7481 H       1  UNL1        0.1527
     30 O          64.7766   86.5048   14.8817 O.3     1  UNL1       -0.4262
     31 C          64.1759   85.3094   15.5601 C.3     1  UNL1        0.2753
     32 C          63.8511   84.0800   14.7643 C.ar    1  UNL1        0.1880
     33 C          62.6402   83.2119   14.9377 C.ar    1  UNL1        0.1389
     34 N          62.7208   82.0982   13.9361 N.ar    1  UNL1       -0.2028
     35 C          63.9817   82.2781   13.1436 C.ar    1  UNL1        0.2849
     36 O          64.6802   83.5028   13.6555 O.2     1  UNL1       -0.4317
     37 C          63.7579   91.0931   14.1782 C.3     1  UNL1        0.0474
     38 C          65.1871   91.4401   13.8838 C.ar    1  UNL1       -0.0205
     39 C          66.2415   91.2265   14.9292 C.ar    1  UNL1       -0.0042
     40 C          67.6708   91.5735   14.6348 C.ar    1  UNL1       -0.0003
     41 C          68.0458   92.1341   13.2950 C.ar    1  UNL1       -0.0000
     42 C          66.9915   92.3477   12.2496 C.ar    1  UNL1       -0.0003
     43 C          65.5622   92.0007   12.5440 C.ar    1  UNL1       -0.0042
@<TRIPOS>BOND
     1     2     3    1
     2     3     1    1
     3     1    24    1
     4    25    24    1
     5    25    37    1
     6    37    38    1
     7    38    39   ar
     8    39    40   ar
     9    40    41   ar
    10    41    42   ar
    11    42    43   ar
    12    25    26    1
    13    26    27   am
    14    27    28    2
    15    27    30    1
    16    30    31    1
    17    31    32    1
    18    32    33   ar
    19    33    34   ar
    20    34    35   ar
    21    35    36   ar
    22     1     4    1
    23     5     4    1
    24     5    17    1
    25    17    18    1
    26    18    19   ar
    27    19    20   ar
    28    20    21   ar
    29    21    22   ar
    30    22    23   ar
    31     5     6    1
    32     6     7   am
    33     7     8    2
    34     7    10    1
    35    10    11    1
    36    11    12    1
    37    12    13   ar
    38    13    14   ar
    39    14    15   ar
    40    15    16   ar
    41    43    38   ar
    42    36    32   ar
    43    23    18   ar
    44    16    12   ar
    45    26    29    1
    46     6     9    1
@<TRIPOS>MOLECULE
*****
 43 46 0 0 0
SMALL
GASTEIGER

@<TRIPOS>ATOM
      1 N          61.7404   89.9690   11.4882 N.3     1  UNL1       -0.2699
      2 C          63.2548   91.4542    9.9879 C.3     1  UNL1        0.0188
      3 C          62.9749   90.1393   10.6533 C.3     1  UNL1        0.0722
      4 C          61.8504   89.8895   12.9821 C.3     1  UNL1        0.0924
      5 C          63.1999   89.8050   13.6313 C.3     1  UNL1        0.0950
      6 N          63.9487   88.5052   13.6387 N.am    1  UNL1       -0.2706
      7 C          64.0581   87.7099   14.9057 C.2     1  UNL1        0.4021
      8 O          63.4188   88.2143   16.1654 O.2     1  UNL1       -0.2264
      9 H          64.3682   88.1742   12.8119 H       1  UNL1        0.1527
     10 O          64.8068   86.4102   14.9130 O.3     1  UNL1       -0.4244
     11 C          64.2799   85.2455   15.6978 C.3     1  UNL1        0.2943
     12 C          63.7440   84.0404   14.9832 C.ar    1  UNL1        0.2509
     13 N          64.3755   83.3613   13.8042 N.ar    1  UNL1       -0.2072
     14 C          63.5043   82.2041   13.4145 C.ar    1  UNL1        0.1425
     15 C          62.3345   82.1680   14.3527 C.ar    1  UNL1        0.2019
     16 O          62.4827   83.3029   15.3222 O.2     1  UNL1       -0.4316
     17 C          63.8008   91.0203   14.2733 C.3     1  UNL1        0.0474
     18 C          65.2082   91.4229   13.9462 C.ar    1  UNL1       -0.0205
     19 C          66.3025   91.2067   14.9491 C.ar    1  UNL1       -0.0042
     20 C          67.7099   91.6093   14.6220 C.ar    1  UNL1       -0.0003
     21 C          68.0231   92.2283   13.2920 C.ar    1  UNL1       -0.0000
     22 C          66.9288   92.4445   12.2891 C.ar    1  UNL1       -0.0003
     23 C          65.5213   92.0418   12.6162 C.ar    1  UNL1       -0.0042
     24 C          60.3960   89.8782   10.8292 C.3     1  UNL1        0.0924
     25 C          60.1958   88.9648    9.6564 C.3     1  UNL1        0.0950
     26 N          60.2435   89.5140    8.2614 N.am    1  UNL1       -0.2706
     27 C          59.3389   88.9545    7.2037 C.2     1  UNL1        0.4021
     28 O          58.3865   87.8459    7.5411 O.2     1  UNL1       -0.2264
     29 H          60.8686   90.2417    8.0399 H       1  UNL1        0.1527
     30 O          59.3866   89.5037    5.8087 O.3     1  UNL1       -0.4262
     31 C          59.0094   90.9325    5.5518 C.3     1  UNL1        0.2753
     32 C          59.7001   91.7076    4.4691 C.ar    1  UNL1        0.1880
     33 C          61.1553   91.6226    4.1152 C.ar    1  UNL1        0.1389
     34 N          61.4116   92.5662    2.9777 N.ar    1  UNL1       -0.2028
     35 C          60.1147   93.2343    2.6285 C.ar    1  UNL1        0.2849
     36 O          59.0570   92.7036    3.5503 O.2     1  UNL1       -0.4317
     37 C          59.9478   87.5022    9.8786 C.3     1  UNL1        0.0474
     38 C          61.0822   86.5258    9.7807 C.ar    1  UNL1       -0.0205
     39 C          61.7153   86.2425    8.4506 C.ar    1  UNL1       -0.0042
     40 C          62.8497   85.2661    8.3527 C.ar    1  UNL1       -0.0003
     41 C          63.3511   84.5729    9.5848 C.ar    1  UNL1       -0.0000
     42 C          62.7181   84.8562   10.9149 C.ar    1  UNL1       -0.0003
     43 C          61.5836   85.8327   11.0128 C.ar    1  UNL1       -0.0042
@<TRIPOS>BOND
     1     2     3    1
     2     3     1    1
     3     1    24    1
     4    25    24    1
     5    25    37    1
     6    37    38    1
     7    38    39   ar
     8    39    40   ar
     9    40    41   ar
    10    41    42   ar
    11    42    43   ar
    12    25    26    1
    13    26    27   am
    14    27    28    2
    15    27    30    1
    16    30    31    1
    17    31    32    1
    18    32    33   ar
    19    33    34   ar
    20    34    35   ar
    21    35    36   ar
    22     1     4    1
    23     5     4    1
    24     5    17    1
    25    17    18    1
    26    18    19   ar
    27    19    20   ar
    28    20    21   ar
    29    21    22   ar
    30    22    23   ar
    31     5     6    1
    32     6     7   am
    33     7     8    2
    34     7    10    1
    35    10    11    1
    36    11    12    1
    37    12    13   ar
    38    13    14   ar
    39    14    15   ar
    40    15    16   ar
    41    43    38   ar
    42    36    32   ar
    43    23    18   ar
    44    16    12   ar
    45    26    29    1
    46     6     9    1
@<TRIPOS>MOLECULE
*****
 43 46 0 0 0
SMALL
GASTEIGER

@<TRIPOS>ATOM
      1 N          62.4093   85.9417   11.0474 N.3     1  UNL1       -0.2699
      2 C          62.8986   85.5422    8.5272 C.3     1  UNL1        0.0188
      3 C          62.1737   85.1659    9.7854 C.3     1  UNL1        0.0722
      4 C          62.2086   85.2841   12.3805 C.3     1  UNL1        0.0924
      5 C          63.3899   84.9876   13.2560 C.3     1  UNL1        0.0950
      6 N          63.6278   85.7991   14.4950 N.am    1  UNL1       -0.2706
      7 C          63.1524   85.2942   15.8250 C.2     1  UNL1        0.4021
      8 O          62.4391   83.9778   15.9162 O.2     1  UNL1       -0.2264
      9 H          64.0959   86.6631   14.4352 H       1  UNL1        0.1527
     10 O          63.3903   86.1057   17.0639 O.3     1  UNL1       -0.4244
     11 C          62.7892   87.4742   17.1910 C.3     1  UNL1        0.2943
     12 C          63.3819   88.6267   16.4358 C.ar    1  UNL1        0.2509
     13 N          63.1560   90.0808   16.7265 N.ar    1  UNL1       -0.2072
     14 C          63.9390   90.8803   15.7276 C.ar    1  UNL1        0.1425
     15 C          64.6488   89.9203   14.8196 C.ar    1  UNL1        0.2019
     16 O          64.3045   88.5275   15.2573 O.2     1  UNL1       -0.4316
     17 C          64.3334   83.8795   12.8926 C.3     1  UNL1        0.0474
     18 C          63.7970   82.5740   12.3850 C.ar    1  UNL1       -0.0205
     19 C          63.1627   81.6030   13.3362 C.ar    1  UNL1       -0.0042
     20 C          62.6263   80.2975   12.8286 C.ar    1  UNL1       -0.0003
     21 C          62.7242   79.9628   11.3696 C.ar    1  UNL1       -0.0000
     22 C          63.3585   80.9338   10.4183 C.ar    1  UNL1       -0.0003
     23 C          63.8950   82.2394   10.9261 C.ar    1  UNL1       -0.0042
     24 C          62.8458   87.3750   10.9762 C.3     1  UNL1        0.0924
     25 C          61.9341   88.4617   11.4640 C.3     1  UNL1        0.0950
     26 N          62.4857   89.5941   12.2785 N.am    1  UNL1       -0.2706
     27 C          63.1428   90.7576   11.5971 C.2     1  UNL1        0.4021
     28 O          63.2484   90.7888   10.1012 O.2     1  UNL1       -0.2264
     29 H          62.4165   89.5736   13.2604 H       1  UNL1        0.1527
     30 O          63.6944   91.8900   12.4116 O.3     1  UNL1       -0.4262
     31 C          64.9936   92.5306   12.0223 C.3     1  UNL1        0.2753
     32 C          66.0689   92.7300   13.0490 C.ar    1  UNL1        0.1880
     33 C          67.3943   92.0285   13.0853 C.ar    1  UNL1        0.1389
     34 N          68.1521   92.5308   14.2784 N.ar    1  UNL1       -0.2028
     35 C          67.2951   93.5427   14.9794 C.ar    1  UNL1        0.2849
     36 O          66.0076   93.6659   14.2196 O.2     1  UNL1       -0.4317
     37 C          60.4708   88.4160   11.1372 C.3     1  UNL1        0.0474
     38 C          60.0243   88.2967    9.7102 C.ar    1  UNL1       -0.0205
     39 C          60.1613   89.4665    8.7812 C.ar    1  UNL1       -0.0042
     40 C          59.7148   89.3472    7.3542 C.ar    1  UNL1       -0.0003
     41 C          59.1314   88.0581    6.8561 C.ar    1  UNL1       -0.0000
     42 C          58.9945   86.8884    7.7851 C.ar    1  UNL1       -0.0003
     43 C          59.4410   87.0077    9.2122 C.ar    1  UNL1       -0.0042
@<TRIPOS>BOND
     1     2     3    1
     2     3     1    1
     3     1    24    1
     4    25    24    1
     5    25    37    1
     6    37    38    1
     7    38    39   ar
     8    39    40   ar
     9    40    41   ar
    10    41    42   ar
    11    42    43   ar
    12    25    26    1
    13    26    27   am
    14    27    28    2
    15    27    30    1
    16    30    31    1
    17    31    32    1
    18    32    33   ar
    19    33    34   ar
    20    34    35   ar
    21    35    36   ar
    22     1     4    1
    23     5     4    1
    24     5    17    1
    25    17    18    1
    26    18    19   ar
    27    19    20   ar
    28    20    21   ar
    29    21    22   ar
    30    22    23   ar
    31     5     6    1
    32     6     7   am
    33     7     8    2
    34     7    10    1
    35    10    11    1
    36    11    12    1
    37    12    13   ar
    38    13    14   ar
    39    14    15   ar
    40    15    16   ar
    41    43    38   ar
    42    36    32   ar
    43    23    18   ar
    44    16    12   ar
    45    26    29    1
    46     6     9    1
@<TRIPOS>MOLECULE
*****
 43 46 0 0 0
SMALL
GASTEIGER

@<TRIPOS>ATOM
      1 N          62.4298   85.9302   11.0451 N.3     1  UNL1       -0.2699
      2 C          62.8595   85.5743    8.5077 C.3     1  UNL1        0.0188
      3 C          62.1412   85.1964    9.7691 C.3     1  UNL1        0.0722
      4 C          62.9059   87.3519   11.0015 C.3     1  UNL1        0.0924
      5 C          62.0164   88.4561   11.4908 C.3     1  UNL1        0.0950
      6 N          62.5940   89.5858   12.2910 N.am    1  UNL1       -0.2706
      7 C          63.1531   90.7901   11.5932 C.2     1  UNL1        0.4021
      8 O          63.1345   90.8649   10.0952 O.2     1  UNL1       -0.2264
      9 H          62.6062   89.5367   13.2742 H       1  UNL1        0.1527
     10 O          63.7307   91.9197   12.3934 O.3     1  UNL1       -0.4244
     11 C          65.0890   92.4597   12.0566 C.3     1  UNL1        0.2943
     12 C          66.1091   92.6526   13.1392 C.ar    1  UNL1        0.2509
     13 N          67.4770   92.0386   13.1813 N.ar    1  UNL1       -0.2072
     14 C          68.1537   92.4999   14.4380 C.ar    1  UNL1        0.1425
     15 C          67.2039   93.3990   15.1726 C.ar    1  UNL1        0.2019
     16 O          65.9403   93.4934   14.3699 O.2     1  UNL1       -0.4316
     17 C          60.5492   88.4307   11.1799 C.3     1  UNL1        0.0474
     18 C          60.0857   88.3032    9.7590 C.ar    1  UNL1       -0.0205
     19 C          60.2409   89.4570    8.8131 C.ar    1  UNL1       -0.0042
     20 C          59.7775   89.3294    7.3922 C.ar    1  UNL1       -0.0003
     21 C          59.1588   88.0481    6.9172 C.ar    1  UNL1       -0.0000
     22 C          59.0036   86.8944    7.8631 C.ar    1  UNL1       -0.0003
     23 C          59.4671   87.0220    9.2841 C.ar    1  UNL1       -0.0042
     24 C          62.2422   85.2422   12.3648 C.3     1  UNL1        0.0924
     25 C          63.4306   84.9404   13.2289 C.3     1  UNL1        0.0950
     26 N          63.6819   85.7485   14.4673 N.am    1  UNL1       -0.2706
     27 C          63.1877   85.2582   15.7959 C.2     1  UNL1        0.4021
     28 O          62.4421   83.9598   15.8862 O.2     1  UNL1       -0.2264
     29 H          64.1713   86.6007   14.4081 H       1  UNL1        0.1527
     30 O          63.4391   86.0662   17.0344 O.3     1  UNL1       -0.4262
     31 C          62.8109   87.4198   17.1871 C.3     1  UNL1        0.2753
     32 C          63.3599   88.5914   16.4281 C.ar    1  UNL1        0.1880
     33 C          63.1724   90.0371   16.7816 C.ar    1  UNL1        0.1389
     34 N          63.8894   90.8622   15.7544 N.ar    1  UNL1       -0.2028
     35 C          64.5200   89.9264   14.7661 C.ar    1  UNL1        0.2849
     36 O          64.1928   88.5230   15.1825 O.2     1  UNL1       -0.4317
     37 C          64.3676   83.8304   12.8545 C.3     1  UNL1        0.0474
     38 C          63.8232   82.5303   12.3415 C.ar    1  UNL1       -0.0205
     39 C          63.2085   81.5470   13.2931 C.ar    1  UNL1       -0.0042
     40 C          62.6641   80.2468   12.7802 C.ar    1  UNL1       -0.0003
     41 C          62.7344   79.9298   11.3157 C.ar    1  UNL1       -0.0000
     42 C          63.3491   80.9130   10.3642 C.ar    1  UNL1       -0.0003
     43 C          63.8935   82.2133   10.8771 C.ar    1  UNL1       -0.0042
@<TRIPOS>BOND
     1     2     3    1
     2     3     1    1
     3     1    24    1
     4    25    24    1
     5    25    37    1
     6    37    38    1
     7    38    39   ar
     8    39    40   ar
     9    40    41   ar
    10    41    42   ar
    11    42    43   ar
    12    25    26    1
    13    26    27   am
    14    27    28    2
    15    27    30    1
    16    30    31    1
    17    31    32    1
    18    32    33   ar
    19    33    34   ar
    20    34    35   ar
    21    35    36   ar
    22     1     4    1
    23     5     4    1
    24     5    17    1
    25    17    18    1
    26    18    19   ar
    27    19    20   ar
    28    20    21   ar
    29    21    22   ar
    30    22    23   ar
    31     5     6    1
    32     6     7   am
    33     7     8    2
    34     7    10    1
    35    10    11    1
    36    11    12    1
    37    12    13   ar
    38    13    14   ar
    39    14    15   ar
    40    15    16   ar
    41    43    38   ar
    42    36    32   ar
    43    23    18   ar
    44    16    12   ar
    45    26    29    1
    46     6     9    1
@<TRIPOS>MOLECULE
*****
 43 46 0 0 0
SMALL
GASTEIGER

@<TRIPOS>ATOM
      1 N          62.1288   88.5177   12.0173 N.3     1  UNL1       -0.2699
      2 C          59.6944   89.4243   11.9736 C.3     1  UNL1        0.0188
      3 C          61.1494   89.6231   12.2794 C.3     1  UNL1        0.0722
      4 C          61.6727   87.2541   11.3500 C.3     1  UNL1        0.0924
      5 C          61.7513   87.1235    9.8578 C.3     1  UNL1        0.0950
      6 N          60.9611   88.0493    8.9812 N.am    1  UNL1       -0.2706
      7 C          59.8552   87.5089    8.1238 C.2     1  UNL1        0.4021
      8 O          59.5396   86.0426    8.1431 O.2     1  UNL1       -0.2264
      9 H          61.1682   89.0117    8.9685 H       1  UNL1        0.1527
     10 O          59.0651   88.4347    7.2473 O.3     1  UNL1       -0.4244
     11 C          59.7229   89.6405    6.6444 C.3     1  UNL1        0.2943
     12 C          58.9362   90.5593    5.7574 C.ar    1  UNL1        0.2509
     13 N          59.5046   91.5006    4.7372 N.ar    1  UNL1       -0.2072
     14 C          58.3626   92.2212    4.0841 C.ar    1  UNL1        0.1425
     15 C          57.0883   91.7251    4.7007 C.ar    1  UNL1        0.2019
     16 O          57.4428   90.6980    5.7348 O.2     1  UNL1       -0.4316
     17 C          62.6201   86.0670    9.2421 C.3     1  UNL1        0.0474
     18 C          62.9238   84.8095   10.0013 C.ar    1  UNL1       -0.0205
     19 C          62.1893   84.5054   11.2733 C.ar    1  UNL1       -0.0042
     20 C          62.4931   83.2479   12.0325 C.ar    1  UNL1       -0.0003
     21 C          63.5313   82.2944   11.5197 C.ar    1  UNL1       -0.0000
     22 C          64.2658   82.5985   10.2477 C.ar    1  UNL1       -0.0003
     23 C          63.9620   83.8561    9.4885 C.ar    1  UNL1       -0.0042
     24 C          63.5644   88.6759   12.4224 C.3     1  UNL1        0.0924
     25 C          63.9107   89.4020   13.6884 C.3     1  UNL1        0.0950
     26 N          64.0800   88.6388   14.9686 N.am    1  UNL1       -0.2706
     27 C          63.0429   88.7439   16.0472 C.2     1  UNL1        0.4021
     28 O          61.8366   89.6123   15.8457 O.2     1  UNL1       -0.2264
     29 H          64.8717   88.0688   15.1008 H       1  UNL1        0.1527
     30 O          63.2122   87.9807   17.3273 O.3     1  UNL1       -0.4262
     31 C          62.7977   86.5410   17.4026 C.3     1  UNL1        0.2753
     32 C          63.3173   85.5573   16.3964 C.ar    1  UNL1        0.1880
     33 C          62.7012   84.2318   16.0596 C.ar    1  UNL1        0.1389
     34 N          63.5474   83.5817   15.0054 N.ar    1  UNL1       -0.2028
     35 C          64.6865   84.5055   14.6906 C.ar    1  UNL1        0.2849
     36 O          64.5443   85.7265   15.5503 O.2     1  UNL1       -0.4317
     37 C          64.0878   90.8915   13.6743 C.3     1  UNL1        0.0474
     38 C          65.3106   91.5073   14.2872 C.ar    1  UNL1       -0.0205
     39 C          66.5690   91.6375   13.4813 C.ar    1  UNL1       -0.0042
     40 C          67.7918   92.2532   14.0942 C.ar    1  UNL1       -0.0003
     41 C          67.7561   92.7388   15.5130 C.ar    1  UNL1       -0.0000
     42 C          66.4977   92.6086   16.3189 C.ar    1  UNL1       -0.0003
     43 C          65.2749   91.9928   15.7060 C.ar    1  UNL1       -0.0042
@<TRIPOS>BOND
     1     2     3    1
     2     3     1    1
     3     1    24    1
     4    25    24    1
     5    25    37    1
     6    37    38    1
     7    38    39   ar
     8    39    40   ar
     9    40    41   ar
    10    41    42   ar
    11    42    43   ar
    12    25    26    1
    13    26    27   am
    14    27    28    2
    15    27    30    1
    16    30    31    1
    17    31    32    1
    18    32    33   ar
    19    33    34   ar
    20    34    35   ar
    21    35    36   ar
    22     1     4    1
    23     5     4    1
    24     5    17    1
    25    17    18    1
    26    18    19   ar
    27    19    20   ar
    28    20    21   ar
    29    21    22   ar
    30    22    23   ar
    31     5     6    1
    32     6     7   am
    33     7     8    2
    34     7    10    1
    35    10    11    1
    36    11    12    1
    37    12    13   ar
    38    13    14   ar
    39    14    15   ar
    40    15    16   ar
    41    43    38   ar
    42    36    32   ar
    43    23    18   ar
    44    16    12   ar
    45    26    29    1
    46     6     9    1
@<TRIPOS>MOLECULE
*****
 43 46 0 0 0
SMALL
GASTEIGER

@<TRIPOS>ATOM
      1 N          62.5424   85.9120   12.0745 N.3     1  UNL1       -0.2699
      2 C          63.5405   84.3271   10.2740 C.3     1  UNL1        0.0188
      3 C          62.3845   85.1168   10.8125 C.3     1  UNL1        0.0722
      4 C          62.1666   85.3066   13.3945 C.3     1  UNL1        0.0924
      5 C          63.1860   85.2042   14.4900 C.3     1  UNL1        0.0950
      6 N          63.5743   86.4255   15.2698 N.am    1  UNL1       -0.2706
      7 C          62.8245   86.7887   16.5171 C.2     1  UNL1        0.4021
      8 O          61.6864   85.9307   16.9847 O.2     1  UNL1       -0.2264
      9 H          64.3213   86.9886   14.9629 H       1  UNL1        0.1527
     10 O          63.2127   88.0098   17.2968 O.3     1  UNL1       -0.4244
     11 C          62.8647   89.3734   16.7774 C.3     1  UNL1        0.2943
     12 C          63.8518   90.1316   15.9403 C.ar    1  UNL1        0.2509
     13 N          64.6573   89.5734   14.8047 N.ar    1  UNL1       -0.2072
     14 C          65.5100   90.6779   14.2543 C.ar    1  UNL1        0.1425
     15 C          65.2315   91.9187   15.0498 C.ar    1  UNL1        0.2019
     16 O          64.2067   91.5811   16.0918 O.2     1  UNL1       -0.4316
     17 C          63.8173   83.8807   14.8058 C.3     1  UNL1        0.0474
     18 C          63.3779   82.6468   14.0749 C.ar    1  UNL1       -0.0205
     19 C          62.1602   81.8987   14.5305 C.ar    1  UNL1       -0.0042
     20 C          61.7209   80.6648   13.7996 C.ar    1  UNL1       -0.0003
     21 C          62.4992   80.1788   12.6129 C.ar    1  UNL1       -0.0000
     22 C          63.7169   80.9269   12.1573 C.ar    1  UNL1       -0.0003
     23 C          64.1563   82.1609   12.8883 C.ar    1  UNL1       -0.0042
     24 C          63.0761   87.3126   12.0165 C.3     1  UNL1        0.0924
     25 C          62.3807   88.3462   11.1809 C.3     1  UNL1        0.0950
     26 N          63.1747   89.4311   10.5157 N.am    1  UNL1       -0.2706
     27 C          63.2891   90.7802   11.1613 C.2     1  UNL1        0.4021
     28 O          62.6094   91.0445   12.4721 O.2     1  UNL1       -0.2264
     29 H          63.6208   89.2577    9.6554 H       1  UNL1        0.1527
     30 O          64.0831   91.8651   10.4961 O.3     1  UNL1       -0.4262
     31 C          65.2134   92.5244   11.2294 C.3     1  UNL1        0.2753
     32 C          66.4596   92.9149   10.4914 C.ar    1  UNL1        0.1880
     33 C          66.8502   94.3082   10.0960 C.ar    1  UNL1        0.1389
     34 N          68.1660   94.2351    9.3795 N.ar    1  UNL1       -0.2028
     35 C          68.5886   92.7966    9.3321 C.ar    1  UNL1        0.2849
     36 O          67.5341   91.9807   10.0193 O.2     1  UNL1       -0.4317
     37 C          60.8913   88.2949   11.0106 C.3     1  UNL1        0.0474
     38 C          60.2974   88.1590    9.6399 C.ar    1  UNL1       -0.0205
     39 C          59.8573   86.8138    9.1431 C.ar    1  UNL1       -0.0042
     40 C          59.2635   86.6779    7.7724 C.ar    1  UNL1       -0.0003
     41 C          59.1096   87.8873    6.8985 C.ar    1  UNL1       -0.0000
     42 C          59.5496   89.2325    7.3952 C.ar    1  UNL1       -0.0003
     43 C          60.1435   89.3684    8.7659 C.ar    1  UNL1       -0.0042
@<TRIPOS>BOND
     1     2     3    1
     2     3     1    1
     3     1    24    1
     4    25    24    1
     5    25    37    1
     6    37    38    1
     7    38    39   ar
     8    39    40   ar
     9    40    41   ar
    10    41    42   ar
    11    42    43   ar
    12    25    26    1
    13    26    27   am
    14    27    28    2
    15    27    30    1
    16    30    31    1
    17    31    32    1
    18    32    33   ar
    19    33    34   ar
    20    34    35   ar
    21    35    36   ar
    22     1     4    1
    23     5     4    1
    24     5    17    1
    25    17    18    1
    26    18    19   ar
    27    19    20   ar
    28    20    21   ar
    29    21    22   ar
    30    22    23   ar
    31     5     6    1
    32     6     7   am
    33     7     8    2
    34     7    10    1
    35    10    11    1
    36    11    12    1
    37    12    13   ar
    38    13    14   ar
    39    14    15   ar
    40    15    16   ar
    41    43    38   ar
    42    36    32   ar
    43    23    18   ar
    44    16    12   ar
    45    26    29    1
    46     6     9    1
@<TRIPOS>MOLECULE
*****
 43 46 0 0 0
SMALL
GASTEIGER

@<TRIPOS>ATOM
      1 N          62.3329   85.9975   11.7335 N.3     1  UNL1       -0.2699
      2 C          62.8872   85.3695    9.2741 C.3     1  UNL1        0.0188
      3 C          61.9117   85.4258   10.4123 C.3     1  UNL1        0.0722
      4 C          62.8457   87.4049   11.8124 C.3     1  UNL1        0.0924
      5 C          62.1957   88.4866   11.0017 C.3     1  UNL1        0.0950
      6 N          63.0363   89.5488   10.3573 N.am    1  UNL1       -0.2706
      7 C          63.2759   90.8486   11.0666 C.2     1  UNL1        0.4021
      8 O          62.6750   91.0862   12.4203 O.2     1  UNL1       -0.2264
      9 H          63.4307   89.3929    9.4688 H       1  UNL1        0.1527
     10 O          64.1165   91.9107   10.4222 O.3     1  UNL1       -0.4244
     11 C          65.3290   92.4396   11.1295 C.3     1  UNL1        0.2943
     12 C          66.4063   93.1363   10.3524 C.ar    1  UNL1        0.2509
     13 N          67.8193   92.6618   10.1840 N.ar    1  UNL1       -0.2072
     14 C          68.5461   93.6620    9.3348 C.ar    1  UNL1        0.1425
     15 C          67.5822   94.7548    8.9784 C.ar    1  UNL1        0.2019
     16 O          66.2598   94.4298    9.6073 O.2     1  UNL1       -0.4316
     17 C          60.7051   88.5061   10.8353 C.3     1  UNL1        0.0474
     18 C          60.1008   88.3569    9.4705 C.ar    1  UNL1       -0.0205
     19 C          59.4910   87.0497    9.0591 C.ar    1  UNL1       -0.0042
     20 C          58.8866   86.9005    7.6944 C.ar    1  UNL1       -0.0003
     21 C          58.8921   88.0586    6.7410 C.ar    1  UNL1       -0.0000
     22 C          59.5019   89.3658    7.1524 C.ar    1  UNL1       -0.0003
     23 C          60.1063   89.5150    8.5172 C.ar    1  UNL1       -0.0042
     24 C          62.2413   85.1619   12.9758 C.3     1  UNL1        0.0924
     25 C          63.4413   85.0002   13.8611 C.3     1  UNL1        0.0950
     26 N          63.7960   86.0735   14.8471 N.am    1  UNL1       -0.2706
     27 C          63.0402   86.1857   16.1379 C.2     1  UNL1        0.4021
     28 O          61.9297   85.2245   16.4428 O.2     1  UNL1       -0.2264
     29 H          64.5248   86.7044   14.6470 H       1  UNL1        0.1527
     30 O          63.3949   87.2590   17.1238 O.3     1  UNL1       -0.4262
     31 C          62.9080   88.6620   16.9127 C.3     1  UNL1        0.2753
     32 C          63.7015   89.6117   16.0651 C.ar    1  UNL1        0.1880
     33 C          63.8541   91.0855   16.2990 C.ar    1  UNL1        0.1389
     34 N          64.7286   91.6391   15.2133 N.ar    1  UNL1       -0.2028
     35 C          65.1165   90.5073   14.3083 C.ar    1  UNL1        0.2849
     36 O          64.4817   89.2544   14.8348 O.2     1  UNL1       -0.4317
     37 C          64.2866   83.7651   13.7605 C.3     1  UNL1        0.0474
     38 C          63.9041   82.6699   12.8097 C.ar    1  UNL1       -0.0205
     39 C          63.1727   81.4609   13.3134 C.ar    1  UNL1       -0.0042
     40 C          62.7902   80.3656   12.3626 C.ar    1  UNL1       -0.0003
     41 C          63.1389   80.4793   10.9081 C.ar    1  UNL1       -0.0000
     42 C          63.8702   81.6882   10.4044 C.ar    1  UNL1       -0.0003
     43 C          64.2528   82.7835   11.3552 C.ar    1  UNL1       -0.0042
@<TRIPOS>BOND
     1     2     3    1
     2     3     1    1
     3     1    24    1
     4    25    24    1
     5    25    37    1
     6    37    38    1
     7    38    39   ar
     8    39    40   ar
     9    40    41   ar
    10    41    42   ar
    11    42    43   ar
    12    25    26    1
    13    26    27   am
    14    27    28    2
    15    27    30    1
    16    30    31    1
    17    31    32    1
    18    32    33   ar
    19    33    34   ar
    20    34    35   ar
    21    35    36   ar
    22     1     4    1
    23     5     4    1
    24     5    17    1
    25    17    18    1
    26    18    19   ar
    27    19    20   ar
    28    20    21   ar
    29    21    22   ar
    30    22    23   ar
    31     5     6    1
    32     6     7   am
    33     7     8    2
    34     7    10    1
    35    10    11    1
    36    11    12    1
    37    12    13   ar
    38    13    14   ar
    39    14    15   ar
    40    15    16   ar
    41    43    38   ar
    42    36    32   ar
    43    23    18   ar
    44    16    12   ar
    45    26    29    1
    46     6     9    1
