@<TRIPOS>MOLECULE
*****
 38 41 0 0 0
SMALL
GASTEIGER

@<TRIPOS>ATOM
      1 C          57.0583   95.5527   -1.8480 C.ar    1  UNL1        0.0502
      2 C          55.7890   95.6527   -1.0550 C.ar    1  UNL1        0.0143
      3 C          54.4771   95.8335   -1.7592 C.ar    1  UNL1       -0.0030
      4 C          54.4344   95.9143   -3.2564 C.ar    1  UNL1       -0.0223
      5 C          55.7036   95.8143   -4.0494 C.ar    1  UNL1       -0.0034
      6 C          57.0156   95.6335   -3.3452 C.ar    1  UNL1        0.0089
      7 C          53.1223   96.0951   -3.9606 C.3     1  UNL1        0.0257
      8 C          51.8413   96.0575   -3.1812 C.3     1  UNL1        0.0260
      9 C          50.5292   96.2383   -3.8854 C.3     1  UNL1        0.0953
     10 N          50.4982   96.4567   -5.3691 N.am    1  UNL1       -0.2642
     11 C          49.1863   96.6376   -6.0733 C.2     1  UNL1        0.3040
     12 O          49.1553   96.8560   -7.5570 O.2     1  UNL1       -0.2526
     13 N          47.9053   96.5999   -5.2938 N.am    1  UNL1       -0.2862
     14 C          51.7793   96.4944   -6.1485 C.3     1  UNL1        0.0953
     15 C          53.0913   96.3136   -5.4443 C.3     1  UNL1        0.0260
     16 H          47.9256   96.4566   -4.3200 H       1  UNL1        0.1511
     17 C          46.5932   96.7808   -5.9981 C.3     1  UNL1        0.1226
     18 C          45.9914   95.6419   -6.7667 C.3     1  UNL1        0.1584
     19 O          44.6045   95.1698   -6.4447 O.3     1  UNL1       -0.3802
     20 H          44.5917   94.7884   -5.5529 H       1  UNL1        0.2105
     21 C          58.2850   95.5335   -4.1382 C.2     1  UNL1       -0.0253
     22 C          58.5245   94.3468   -5.0238 C.2     1  UNL1       -0.0303
     23 C          59.7938   94.2467   -5.8168 C.3     1  UNL1        0.0257
     24 C          60.8237   95.3334   -5.7241 C.3     1  UNL1        0.0050
     25 C          60.5842   96.5201   -4.8385 C.3     1  UNL1        0.0050
     26 C          59.3148   96.6201   -4.0455 C.3     1  UNL1        0.0261
     27 C          58.6950   94.0629   -0.4871 C.2     1  UNL1        0.2837
     28 O          57.7075   92.9347   -0.5347 O.2     1  UNL1       -0.2665
     29 N          58.3704   95.3719   -1.1437 N.am    1  UNL1       -0.2779
     30 H          59.0185   96.1123   -1.1125 H       1  UNL1        0.1553
     31 C          61.7732   92.9681    1.6083 C.ar    1  UNL1        0.1469
     32 C          62.2787   94.2394    0.9932 C.ar    1  UNL1        0.1282
     33 N          61.1870   94.8043    0.1334 N.ar    1  UNL1       -0.2205
     34 C          60.0070   93.8821    0.2171 C.ar    1  UNL1        0.1958
     35 N          60.3693   92.7472    1.1286 N.ar    1  UNL1       -0.3257
     36 H          59.7877   91.9903    1.3697 H       1  UNL1        0.1682
     37 N          63.3020   91.1808    3.4708 N.1     1  UNL1       -0.1893
     38 C          62.5376   92.0744    2.5396 C.1     1  UNL1        0.1194
@<TRIPOS>BOND
     1    37    38    3
     2    38    31    1
     3    31    32   ar
     4    32    33   ar
     5    33    34   ar
     6    34    27    1
     7    27    28    2
     8    27    29   am
     9    29     1    1
    10     1     2   ar
    11     2     3   ar
    12     3     4   ar
    13     4     7    1
    14     7     8    1
    15     8     9    1
    16     9    10    1
    17    10    11   am
    18    11    12    2
    19    11    13   am
    20    13    17    1
    21    17    18    1
    22    18    19    1
    23    10    14    1
    24    14    15    1
    25     4     5   ar
    26     5     6   ar
    27     6    21    1
    28    21    22    2
    29    22    23    1
    30    23    24    1
    31    24    25    1
    32    25    26    1
    33    34    35   ar
    34    35    31   ar
    35     6     1   ar
    36    26    21    1
    37    15     7    1
    38    29    30    1
    39    13    16    1
    40    19    20    1
    41    35    36    1
@<TRIPOS>MOLECULE
*****
 38 41 0 0 0
SMALL
GASTEIGER

@<TRIPOS>ATOM
      1 C          60.7302   87.2814    9.9842 C.ar    1  UNL1        0.0502
      2 C          59.8377   86.8029    8.8778 C.ar    1  UNL1        0.0143
      3 C          59.5756   87.6832    7.6918 C.ar    1  UNL1       -0.0030
      4 C          60.2060   89.0419    7.6124 C.ar    1  UNL1       -0.0223
      5 C          61.0986   89.5204    8.7189 C.ar    1  UNL1       -0.0034
      6 C          61.3607   88.6402    9.9048 C.ar    1  UNL1        0.0089
      7 C          59.9439   89.9222    6.4264 C.3     1  UNL1        0.0257
      8 C          61.0912   90.5312    5.6762 C.3     1  UNL1        0.0260
      9 C          60.8290   91.4114    4.4902 C.3     1  UNL1        0.0953
     10 N          59.4195   91.6826    4.0545 N.am    1  UNL1       -0.2642
     11 C          59.1574   92.5628    2.8685 C.2     1  UNL1        0.3040
     12 O          57.7479   92.8340    2.4328 O.2     1  UNL1       -0.2526
     13 N          60.3046   93.1718    2.1184 N.am    1  UNL1       -0.2862
     14 C          58.2722   91.0735    4.8047 C.3     1  UNL1        0.0953
     15 C          58.5344   90.1933    5.9906 C.3     1  UNL1        0.0260
     16 H          61.2297   92.9938    2.4044 H       1  UNL1        0.1511
     17 C          60.0425   94.0521    0.9324 C.3     1  UNL1        0.1226
     18 C          59.6626   93.4427   -0.3845 C.3     1  UNL1        0.1584
     19 O          59.0515   92.0736   -0.4289 O.3     1  UNL1       -0.3802
     20 H          59.7017   91.4194   -0.1289 H       1  UNL1        0.2105
     21 C          62.2533   89.1187   11.0113 C.2     1  UNL1       -0.0253
     22 C          62.5691   90.5793   11.1417 C.2     1  UNL1       -0.0303
     23 C          63.4616   91.0578   12.2481 C.3     1  UNL1        0.0257
     24 C          64.0385   90.0757   13.2243 C.3     1  UNL1        0.0050
     25 C          63.7227   88.6151   13.0940 C.3     1  UNL1        0.0050
     26 C          62.8301   88.1366   11.9874 C.3     1  UNL1        0.0261
     27 C          62.0425   85.3328   11.0937 C.2     1  UNL1        0.2837
     28 O          62.8305   85.1448    9.8313 O.2     1  UNL1       -0.2665
     29 N          60.9924   86.4012   11.1702 N.am    1  UNL1       -0.2779
     30 H          60.4752   86.5246   11.9988 H       1  UNL1        0.1553
     31 C          62.7044   82.4954   13.6581 C.ar    1  UNL1        0.1469
     32 C          62.7119   83.7007   14.5511 C.ar    1  UNL1        0.1282
     33 N          62.4648   84.9103   13.6991 N.ar    1  UNL1       -0.2205
     34 C          62.3047   84.4526   12.2796 C.ar    1  UNL1        0.1958
     35 N          62.4528   82.9602   12.2543 N.ar    1  UNL1       -0.3257
     36 H          62.3949   82.3864   11.4564 H       1  UNL1        0.1682
     37 N          63.1199   79.6543   14.5272 N.1     1  UNL1       -0.1893
     38 C          62.9121   81.0748   14.0927 C.1     1  UNL1        0.1194
@<TRIPOS>BOND
     1    37    38    3
     2    38    31    1
     3    31    32   ar
     4    32    33   ar
     5    33    34   ar
     6    34    27    1
     7    27    28    2
     8    27    29   am
     9    29     1    1
    10     1     2   ar
    11     2     3   ar
    12     3     4   ar
    13     4     7    1
    14     7     8    1
    15     8     9    1
    16     9    10    1
    17    10    11   am
    18    11    12    2
    19    11    13   am
    20    13    17    1
    21    17    18    1
    22    18    19    1
    23    10    14    1
    24    14    15    1
    25     4     5   ar
    26     5     6   ar
    27     6    21    1
    28    21    22    2
    29    22    23    1
    30    23    24    1
    31    24    25    1
    32    25    26    1
    33    34    35   ar
    34    35    31   ar
    35     6     1   ar
    36    26    21    1
    37    15     7    1
    38    29    30    1
    39    13    16    1
    40    19    20    1
    41    35    36    1
@<TRIPOS>MOLECULE
*****
 38 41 0 0 0
SMALL
GASTEIGER

@<TRIPOS>ATOM
      1 C          58.6509   95.9574   -1.8828 C.ar    1  UNL1        0.0502
      2 C          57.3918   96.1278   -1.0857 C.ar    1  UNL1        0.0143
      3 C          56.0645   96.1800   -1.7824 C.ar    1  UNL1       -0.0030
      4 C          55.9963   96.0618   -3.2762 C.ar    1  UNL1       -0.0223
      5 C          57.2554   95.8914   -4.0733 C.ar    1  UNL1       -0.0034
      6 C          58.5827   95.8392   -3.3766 C.ar    1  UNL1        0.0089
      7 C          54.6688   96.1141   -3.9728 C.3     1  UNL1        0.0257
      8 C          53.4010   96.1223   -3.1713 C.3     1  UNL1        0.0260
      9 C          52.0735   96.1745   -3.8680 C.3     1  UNL1        0.0953
     10 N          52.0140   96.2185   -5.3661 N.am    1  UNL1       -0.2642
     11 C          50.6867   96.2708   -6.0628 C.2     1  UNL1        0.3040
     12 O          50.6272   96.3148   -7.5610 O.2     1  UNL1       -0.2526
     13 N          49.4189   96.2790   -5.2613 N.am    1  UNL1       -0.2862
     14 C          53.2820   96.2103   -6.1676 C.3     1  UNL1        0.0953
     15 C          54.6093   96.1581   -5.4710 C.3     1  UNL1        0.0260
     16 H          49.4579   96.2501   -4.2780 H       1  UNL1        0.1511
     17 C          48.0914   96.3312   -5.9579 C.3     1  UNL1        0.1226
     18 C          47.4662   95.0701   -6.4760 C.3     1  UNL1        0.1584
     19 O          48.2379   93.7842   -6.4485 O.3     1  UNL1       -0.3802
     20 H          48.9957   93.8489   -7.0506 H       1  UNL1        0.2105
     21 C          59.8420   95.6688   -4.1737 C.2     1  UNL1       -0.0253
     22 C          60.4765   96.8555   -4.8364 C.2     1  UNL1       -0.0303
     23 C          61.7357   96.6851   -5.6335 C.3     1  UNL1        0.0257
     24 C          62.3604   95.3280   -5.7680 C.3     1  UNL1        0.0050
     25 C          61.7259   94.1413   -5.1053 C.3     1  UNL1        0.0050
     26 C          60.4667   94.3117   -4.3082 C.3     1  UNL1        0.0261
     27 C          60.4311   94.6350   -0.5291 C.2     1  UNL1        0.2837
     28 O          59.5563   93.4170   -0.5687 O.2     1  UNL1       -0.2665
     29 N          59.9784   95.9051   -1.1862 N.am    1  UNL1       -0.2779
     30 H          60.5525   96.7045   -1.1602 H       1  UNL1        0.1553
     31 C          63.7138   95.2140    1.4592 C.ar    1  UNL1        0.1469
     32 C          63.8883   93.7904    1.0199 C.ar    1  UNL1        0.1282
     33 N          62.6799   93.4003    0.2215 N.ar    1  UNL1       -0.2205
     34 C          61.7584   94.5827    0.1675 C.ar    1  UNL1        0.1958
     35 N          62.3974   95.7036    0.9325 N.ar    1  UNL1       -0.3257
     36 H          62.0192   96.6028    1.0654 H       1  UNL1        0.1682
     37 N          65.6563   96.8030    3.1030 N.1     1  UNL1       -0.1893
     38 C          64.6850   96.0085    2.2811 C.1     1  UNL1        0.1194
@<TRIPOS>BOND
     1    37    38    3
     2    38    31    1
     3    31    32   ar
     4    32    33   ar
     5    33    34   ar
     6    34    27    1
     7    27    28    2
     8    27    29   am
     9    29     1    1
    10     1     2   ar
    11     2     3   ar
    12     3     4   ar
    13     4     7    1
    14     7     8    1
    15     8     9    1
    16     9    10    1
    17    10    11   am
    18    11    12    2
    19    11    13   am
    20    13    17    1
    21    17    18    1
    22    18    19    1
    23    10    14    1
    24    14    15    1
    25     4     5   ar
    26     5     6   ar
    27     6    21    1
    28    21    22    2
    29    22    23    1
    30    23    24    1
    31    24    25    1
    32    25    26    1
    33    34    35   ar
    34    35    31   ar
    35     6     1   ar
    36    26    21    1
    37    15     7    1
    38    29    30    1
    39    13    16    1
    40    19    20    1
    41    35    36    1
@<TRIPOS>MOLECULE
*****
 38 41 0 0 0
SMALL
GASTEIGER

@<TRIPOS>ATOM
      1 C          60.7148   87.9469    9.2786 C.ar    1  UNL1        0.0502
      2 C          59.9089   87.4379    8.1205 C.ar    1  UNL1        0.0143
      3 C          59.7061   88.3013    6.9108 C.ar    1  UNL1       -0.0030
      4 C          60.3091   89.6738    6.8593 C.ar    1  UNL1       -0.0223
      5 C          61.1150   90.1828    8.0175 C.ar    1  UNL1       -0.0034
      6 C          61.3178   89.3194    9.2271 C.ar    1  UNL1        0.0089
      7 C          60.1062   90.5372    5.6496 C.3     1  UNL1        0.0257
      8 C          61.2895   91.0063    4.8560 C.3     1  UNL1        0.0260
      9 C          61.0866   91.8698    3.6462 C.3     1  UNL1        0.0953
     10 N          59.7004   92.2640    3.2302 N.am    1  UNL1       -0.2642
     11 C          59.4975   93.1274    2.0205 C.2     1  UNL1        0.3040
     12 O          58.1114   93.5217    1.6044 O.2     1  UNL1       -0.2526
     13 N          60.6808   93.5965    1.2269 N.am    1  UNL1       -0.2862
     14 C          58.5171   91.7949    4.0238 C.3     1  UNL1        0.0953
     15 C          58.7201   90.9315    5.2335 C.3     1  UNL1        0.0260
     16 H          61.5905   93.3378    1.5000 H       1  UNL1        0.1511
     17 C          60.4779   94.4600    0.0172 C.3     1  UNL1        0.1226
     18 C          60.1470   95.9139    0.1804 C.3     1  UNL1        0.1584
     19 O          58.7273   96.3384    0.4131 O.3     1  UNL1       -0.3802
     20 H          58.1970   96.1386   -0.3741 H       1  UNL1        0.2105
     21 C          62.1237   89.8285   10.3854 C.2     1  UNL1       -0.0253
     22 C          63.1410   90.9102   10.1734 C.2     1  UNL1       -0.0303
     23 C          63.9469   91.4192   11.3316 C.3     1  UNL1        0.0257
     24 C          63.7355   90.8465   12.7018 C.3     1  UNL1        0.0050
     25 C          62.7182   89.7648   12.9137 C.3     1  UNL1        0.0050
     26 C          61.9123   89.2558   11.7555 C.3     1  UNL1        0.0261
     27 C          61.9619   86.0068   10.4747 C.2     1  UNL1        0.2837
     28 O          62.8034   85.7936    9.2513 O.2     1  UNL1       -0.2665
     29 N          60.9176   87.0835   10.4884 N.am    1  UNL1       -0.2779
     30 H          60.3654   87.2235   11.2913 H       1  UNL1        0.1553
     31 C          62.4104   84.4175   13.9872 C.ar    1  UNL1        0.1469
     32 C          62.5437   83.2120   13.1045 C.ar    1  UNL1        0.1282
     33 N          62.3919   83.6607   11.6813 N.ar    1  UNL1       -0.2205
     34 C          62.1648   85.1434   11.6844 C.ar    1  UNL1        0.1958
     35 N          62.1763   85.6111   13.1095 N.ar    1  UNL1       -0.3257
     36 H          62.0519   86.5387   13.4152 H       1  UNL1        0.1682
     37 N          62.5821   84.4375   16.9823 N.1     1  UNL1       -0.1893
     38 C          62.4962   84.4275   15.4848 C.1     1  UNL1        0.1194
@<TRIPOS>BOND
     1    37    38    3
     2    38    31    1
     3    31    32   ar
     4    32    33   ar
     5    33    34   ar
     6    34    27    1
     7    27    28    2
     8    27    29   am
     9    29     1    1
    10     1     2   ar
    11     2     3   ar
    12     3     4   ar
    13     4     7    1
    14     7     8    1
    15     8     9    1
    16     9    10    1
    17    10    11   am
    18    11    12    2
    19    11    13   am
    20    13    17    1
    21    17    18    1
    22    18    19    1
    23    10    14    1
    24    14    15    1
    25     4     5   ar
    26     5     6   ar
    27     6    21    1
    28    21    22    2
    29    22    23    1
    30    23    24    1
    31    24    25    1
    32    25    26    1
    33    34    35   ar
    34    35    31   ar
    35     6     1   ar
    36    26    21    1
    37    15     7    1
    38    29    30    1
    39    13    16    1
    40    19    20    1
    41    35    36    1
