@<TRIPOS>MOLECULE
*****
 24 27 0 0 0
SMALL
GASTEIGER

@<TRIPOS>ATOM
      1 C          64.0282   87.6210   13.7884 C.2     1  UNL1        0.3563
      2 N          63.1729   87.4326   12.5705 N.2     1  UNL1       -0.0039
      3 C          62.6860   88.6264   11.8040 C.2     1  UNL1        0.3159
      4 C          63.0544   90.0087   12.2552 C.3     1  UNL1        0.2333
      5 C          63.9096   90.1971   13.4729 C.2     1  UNL1        0.3644
      6 O          64.2780   91.5794   13.9242 O.2     1  UNL1       -0.2422
      7 N          64.3965   89.0032   14.2396 N.am    1  UNL1        0.0288
      8 N          61.8307   88.4380   10.5861 N.pl3   1  UNL1       -0.1888
      9 C          61.7254   87.0858    9.9455 C.3     1  UNL1        0.2343
     10 C          60.8702   86.8973    8.7277 C.3     1  UNL1        0.1929
     11 O          60.1202   88.0611    8.1506 O.3     1  UNL1       -0.3449
     12 C          60.2255   89.4133    8.7912 C.3     1  UNL1        0.1929
     13 C          61.0808   89.6018   10.0090 C.3     1  UNL1        0.2343
     14 C          64.5150   86.4271   14.5549 C.3     1  UNL1        0.1852
     15 C          62.1638   84.8053   16.1332 C.3     1  UNL1        0.1316
     16 N          62.9256   84.3125   14.9387 N.ar    1  UNL1       -0.3124
     17 C          64.0064   85.0580   14.2133 C.ar    1  UNL1        0.1329
     18 N          64.4891   84.1939   13.0862 N.ar    1  UNL1       -0.2303
     19 C          63.7068   82.9144   13.1151 C.ar    1  UNL1        0.0983
     20 C          63.7494   81.6921   12.2468 C.ar    1  UNL1        0.0206
     21 C          62.8257   80.5430   12.5234 C.ar    1  UNL1        0.0016
     22 C          61.8594   80.6164   13.6683 C.ar    1  UNL1        0.0016
     23 C          61.8168   81.8387   14.5366 C.ar    1  UNL1        0.0188
     24 C          62.7404   82.9877   14.2600 C.ar    1  UNL1        0.0787
@<TRIPOS>BOND
     1    15    16    1
     2    16    17   ar
     3    17    14    1
     4    14     1    1
     5     1     2    1
     6     2     3    2
     7     3     8    1
     8     8     9    1
     9     9    10    1
    10    10    11    1
    11    11    12    1
    12    12    13    1
    13     3     4    1
    14     4     5    1
    15     5     6    2
    16     5     7    1
    17    17    18   ar
    18    18    19   ar
    19    19    20   ar
    20    20    21   ar
    21    21    22   ar
    22    22    23   ar
    23    23    24   ar
    24    24    16   ar
    25     7     1    2
    26    24    19   ar
    27    13     8    1
@<TRIPOS>MOLECULE
*****
 24 27 0 0 0
SMALL
GASTEIGER

@<TRIPOS>ATOM
      1 C          62.1075   87.3299   10.8527 C.2     1  UNL1        0.3563
      2 N          62.2443   86.2781   11.9134 N.2     1  UNL1       -0.0039
      3 C          62.5860   84.8683   11.5321 C.2     1  UNL1        0.3159
      4 C          62.7911   84.5101   10.0900 C.3     1  UNL1        0.2333
      5 C          62.6543   85.5618    9.0292 C.2     1  UNL1        0.3644
      6 O          62.8594   85.2036    7.5871 O.2     1  UNL1       -0.2422
      7 N          62.3126   86.9717    9.4106 N.am    1  UNL1        0.0288
      8 N          62.7228   83.8165   12.5929 N.pl3   1  UNL1       -0.1888
      9 C          62.8858   82.3768   12.2049 C.3     1  UNL1        0.2343
     10 C          63.0225   81.3250   13.2656 C.3     1  UNL1        0.1929
     11 O          62.9963   81.7130   14.7143 O.3     1  UNL1       -0.3449
     12 C          62.8333   83.1528   15.1022 C.3     1  UNL1        0.1929
     13 C          62.6966   84.2045   14.0416 C.3     1  UNL1        0.2343
     14 C          61.7658   88.7397   11.2340 C.3     1  UNL1        0.1852
     15 C          63.2025   91.4057   10.0181 C.3     1  UNL1        0.1316
     16 N          63.4398   90.8187   11.3779 N.ar    1  UNL1       -0.3124
     17 C          62.7795   89.5933   11.9368 C.ar    1  UNL1        0.1329
     18 N          63.3108   89.3714   13.3219 N.ar    1  UNL1       -0.2303
     19 C          64.2995   90.4596   13.6190 C.ar    1  UNL1        0.0983
     20 C          65.1374   90.7515   14.8284 C.ar    1  UNL1        0.0206
     21 C          66.0551   91.9380   14.8362 C.ar    1  UNL1        0.0016
     22 C          66.1349   92.8325   13.6348 C.ar    1  UNL1        0.0016
     23 C          65.2969   92.5405   12.4254 C.ar    1  UNL1        0.0188
     24 C          64.3792   91.3541   12.4175 C.ar    1  UNL1        0.0787
@<TRIPOS>BOND
     1    15    16    1
     2    16    17   ar
     3    17    14    1
     4    14     1    1
     5     1     2    1
     6     2     3    2
     7     3     8    1
     8     8     9    1
     9     9    10    1
    10    10    11    1
    11    11    12    1
    12    12    13    1
    13     3     4    1
    14     4     5    1
    15     5     6    2
    16     5     7    1
    17    17    18   ar
    18    18    19   ar
    19    19    20   ar
    20    20    21   ar
    21    21    22   ar
    22    22    23   ar
    23    23    24   ar
    24    24    16   ar
    25     7     1    2
    26    24    19   ar
    27    13     8    1
@<TRIPOS>MOLECULE
*****
 24 27 0 0 0
SMALL
GASTEIGER

@<TRIPOS>ATOM
      1 C          62.0467   87.8562   10.8873 C.2     1  UNL1        0.3563
      2 N          62.3878   86.9268   12.0143 N.2     1  UNL1       -0.0039
      3 C          62.7109   85.4900   11.7298 C.2     1  UNL1        0.3159
      4 C          62.6929   84.9824   10.3184 C.3     1  UNL1        0.2333
      5 C          62.3519   85.9117    9.1915 C.2     1  UNL1        0.3644
      6 O          62.3339   85.4042    7.7801 O.2     1  UNL1       -0.2422
      7 N          62.0288   87.3487    9.4759 N.am    1  UNL1        0.0288
      8 N          63.0519   84.5605   12.8568 N.pl3   1  UNL1       -0.1888
      9 C          63.7477   85.0856   14.0775 C.3     1  UNL1        0.2343
     10 C          64.0887   84.1563   15.2044 C.3     1  UNL1        0.1929
     11 O          63.7340   82.7019   15.1106 O.3     1  UNL1       -0.3449
     12 C          63.0383   82.1768   13.8899 C.3     1  UNL1        0.1929
     13 C          62.6972   83.1061   12.7630 C.3     1  UNL1        0.2343
     14 C          61.7237   89.2931   11.1718 C.3     1  UNL1        0.1852
     15 C          63.2245   89.8454   14.0164 C.3     1  UNL1        0.1316
     16 N          63.5199   90.5319   12.7158 N.ar    1  UNL1       -0.3124
     17 C          62.8300   90.2780   11.4083 C.ar    1  UNL1        0.1329
     18 N          63.4408   91.1819   10.3789 N.ar    1  UNL1       -0.2303
     19 C          64.5082   91.9945   11.0501 C.ar    1  UNL1        0.0983
     20 C          65.4418   93.0483   10.5328 C.ar    1  UNL1        0.0206
     21 C          66.4244   93.7003   11.4598 C.ar    1  UNL1        0.0016
     22 C          66.4733   93.2985   12.9041 C.ar    1  UNL1        0.0016
     23 C          65.5396   92.2447   13.4215 C.ar    1  UNL1        0.0188
     24 C          64.5570   91.5927   12.4945 C.ar    1  UNL1        0.0787
@<TRIPOS>BOND
     1    15    16    1
     2    16    17   ar
     3    17    14    1
     4    14     1    1
     5     1     2    1
     6     2     3    2
     7     3     8    1
     8     8     9    1
     9     9    10    1
    10    10    11    1
    11    11    12    1
    12    12    13    1
    13     3     4    1
    14     4     5    1
    15     5     6    2
    16     5     7    1
    17    17    18   ar
    18    18    19   ar
    19    19    20   ar
    20    20    21   ar
    21    21    22   ar
    22    22    23   ar
    23    23    24   ar
    24    24    16   ar
    25     7     1    2
    26    24    19   ar
    27    13     8    1
@<TRIPOS>MOLECULE
*****
 24 27 0 0 0
SMALL
GASTEIGER

@<TRIPOS>ATOM
      1 C          62.8888   89.3994   11.7661 C.2     1  UNL1        0.3563
      2 N          62.1559   88.8390   10.5834 N.2     1  UNL1       -0.0039
      3 C          61.9470   87.3585   10.4631 C.2     1  UNL1        0.3159
      4 C          62.4709   86.4384   11.5256 C.3     1  UNL1        0.2333
      5 C          63.2037   86.9987   12.7083 C.2     1  UNL1        0.3644
      6 O          63.7276   86.0786   13.7708 O.2     1  UNL1       -0.2422
      7 N          63.4127   88.4792   12.8286 N.am    1  UNL1        0.0288
      8 N          61.2141   86.7982    9.2803 N.pl3   1  UNL1       -0.1888
      9 C          61.8884   85.8034    8.3827 C.3     1  UNL1        0.2343
     10 C          61.1555   85.2430    7.1999 C.3     1  UNL1        0.1929
     11 O          59.7484   85.6774    6.9148 O.3     1  UNL1       -0.3449
     12 C          59.0741   86.6721    7.8125 C.3     1  UNL1        0.1929
     13 C          59.8070   87.2325    8.9952 C.3     1  UNL1        0.2343
     14 C          63.0978   90.8799   11.8864 C.3     1  UNL1        0.1852
     15 C          65.8206   92.4220   10.9604 C.3     1  UNL1        0.1316
     16 N          65.4128   92.1244   12.3729 N.ar    1  UNL1       -0.3124
     17 C          64.1613   91.4156   12.7985 C.ar    1  UNL1        0.1329
     18 N          64.1600   91.3365   14.2964 N.ar    1  UNL1       -0.2303
     19 C          65.4108   91.9964   14.7965 C.ar    1  UNL1        0.0983
     20 C          65.9447   92.2169   16.1808 C.ar    1  UNL1        0.0206
     21 C          67.2528   92.9243   16.3763 C.ar    1  UNL1        0.0016
     22 C          68.0271   93.4112   15.1874 C.ar    1  UNL1        0.0016
     23 C          67.4932   93.1908   13.8032 C.ar    1  UNL1        0.0188
     24 C          66.1851   92.4834   13.6077 C.ar    1  UNL1        0.0787
@<TRIPOS>BOND
     1    15    16    1
     2    16    17   ar
     3    17    14    1
     4    14     1    1
     5     1     2    1
     6     2     3    2
     7     3     8    1
     8     8     9    1
     9     9    10    1
    10    10    11    1
    11    11    12    1
    12    12    13    1
    13     3     4    1
    14     4     5    1
    15     5     6    2
    16     5     7    1
    17    17    18   ar
    18    18    19   ar
    19    19    20   ar
    20    20    21   ar
    21    21    22   ar
    22    22    23   ar
    23    23    24   ar
    24    24    16   ar
    25     7     1    2
    26    24    19   ar
    27    13     8    1
@<TRIPOS>MOLECULE
*****
 24 27 0 0 0
SMALL
GASTEIGER

@<TRIPOS>ATOM
      1 C          63.0536   89.2710   12.1861 C.2     1  UNL1        0.3563
      2 N          62.2801   88.8144   10.9847 N.2     1  UNL1       -0.0039
      3 C          62.0334   87.3516   10.7630 C.2     1  UNL1        0.3159
      4 C          62.5602   86.3452   11.7428 C.3     1  UNL1        0.2333
      5 C          63.3336   86.8017   12.9441 C.2     1  UNL1        0.3644
      6 O          63.8603   85.7954   13.9238 O.2     1  UNL1       -0.2422
      7 N          63.5804   88.2646   13.1659 N.am    1  UNL1        0.0288
      8 N          61.2599   86.8950    9.5616 N.pl3   1  UNL1       -0.1888
      9 C          59.8645   87.3956    9.3334 C.3     1  UNL1        0.2343
     10 C          59.0910   86.9391    8.1321 C.3     1  UNL1        0.1929
     11 O          59.7130   85.9820    7.1589 O.3     1  UNL1       -0.3449
     12 C          61.1085   85.4814    7.3871 C.3     1  UNL1        0.1929
     13 C          61.8819   85.9379    8.5885 C.3     1  UNL1        0.2343
     14 C          63.3003   90.7338   12.4078 C.3     1  UNL1        0.1852
     15 C          63.5999   90.9090   15.6527 C.3     1  UNL1        0.1316
     16 N          64.6567   91.2642   14.6492 N.ar    1  UNL1       -0.3124
     17 C          64.5190   91.1837   13.1578 C.ar    1  UNL1        0.1329
     18 N          65.8140   91.6320   12.5479 N.ar    1  UNL1       -0.2303
     19 C          66.7521   91.9896   13.6624 C.ar    1  UNL1        0.0983
     20 C          68.1651   92.4929   13.6625 C.ar    1  UNL1        0.0206
     21 C          68.8629   92.7688   14.9613 C.ar    1  UNL1        0.0016
     22 C          68.1476   92.5415   16.2601 C.ar    1  UNL1        0.0016
     23 C          66.7346   92.0382   16.2600 C.ar    1  UNL1        0.0188
     24 C          66.0368   91.7623   14.9612 C.ar    1  UNL1        0.0787
@<TRIPOS>BOND
     1    15    16    1
     2    16    17   ar
     3    17    14    1
     4    14     1    1
     5     1     2    1
     6     2     3    2
     7     3     8    1
     8     8     9    1
     9     9    10    1
    10    10    11    1
    11    11    12    1
    12    12    13    1
    13     3     4    1
    14     4     5    1
    15     5     6    2
    16     5     7    1
    17    17    18   ar
    18    18    19   ar
    19    19    20   ar
    20    20    21   ar
    21    21    22   ar
    22    22    23   ar
    23    23    24   ar
    24    24    16   ar
    25     7     1    2
    26    24    19   ar
    27    13     8    1
@<TRIPOS>MOLECULE
*****
 24 27 0 0 0
SMALL
GASTEIGER

@<TRIPOS>ATOM
      1 C          63.6822   88.1283   13.7235 C.2     1  UNL1        0.3563
      2 N          62.8979   88.0966   12.4453 N.2     1  UNL1       -0.0039
      3 C          62.6060   86.7860   11.7768 C.2     1  UNL1        0.3159
      4 C          63.0984   85.5070   12.3864 C.3     1  UNL1        0.2333
      5 C          63.8827   85.5386   13.6646 C.2     1  UNL1        0.3644
      6 O          64.3752   84.2596   14.2743 O.2     1  UNL1       -0.2422
      7 N          64.1747   86.8493   14.3332 N.am    1  UNL1        0.0288
      8 N          61.8216   86.7542   10.4985 N.pl3   1  UNL1       -0.1888
      9 C          62.3059   85.9314    9.3416 C.3     1  UNL1        0.2343
     10 C          61.5216   85.8996    8.0634 C.3     1  UNL1        0.1929
     11 O          60.2530   86.6907    7.9421 O.3     1  UNL1       -0.3449
     12 C          59.7687   87.5136    9.0990 C.3     1  UNL1        0.1929
     13 C          60.5530   87.5454   10.3772 C.3     1  UNL1        0.2343
     14 C          63.9741   89.4390   14.3920 C.3     1  UNL1        0.1852
     15 C          65.7866   91.9153   15.5022 C.3     1  UNL1        0.1316
     16 N          65.3052   91.7376   14.0927 N.ar    1  UNL1       -0.3124
     17 C          64.4722   90.5994   13.5824 C.ar    1  UNL1        0.1329
     18 N          64.2245   90.8253   12.1203 N.ar    1  UNL1       -0.2303
     19 C          64.9046   92.1031   11.7270 C.ar    1  UNL1        0.0983
     20 C          65.0019   92.8261   10.4164 C.ar    1  UNL1        0.0206
     21 C          65.7672   94.1129   10.3247 C.ar    1  UNL1        0.0016
     22 C          66.4351   94.6767   11.5437 C.ar    1  UNL1        0.0016
     23 C          66.3378   93.9538   12.8544 C.ar    1  UNL1        0.0188
     24 C          65.5725   92.6670   12.9460 C.ar    1  UNL1        0.0787
@<TRIPOS>BOND
     1    15    16    1
     2    16    17   ar
     3    17    14    1
     4    14     1    1
     5     1     2    1
     6     2     3    2
     7     3     8    1
     8     8     9    1
     9     9    10    1
    10    10    11    1
    11    11    12    1
    12    12    13    1
    13     3     4    1
    14     4     5    1
    15     5     6    2
    16     5     7    1
    17    17    18   ar
    18    18    19   ar
    19    19    20   ar
    20    20    21   ar
    21    21    22   ar
    22    22    23   ar
    23    23    24   ar
    24    24    16   ar
    25     7     1    2
    26    24    19   ar
    27    13     8    1
@<TRIPOS>MOLECULE
*****
 24 27 0 0 0
SMALL
GASTEIGER

@<TRIPOS>ATOM
      1 C          63.7674   86.9130   13.6619 C.2     1  UNL1        0.3563
      2 N          62.9614   86.7309   12.4100 N.2     1  UNL1       -0.0039
      3 C          62.5356   87.9272   11.6115 C.2     1  UNL1        0.3159
      4 C          62.9157   89.3056   12.0649 C.3     1  UNL1        0.2333
      5 C          63.7217   89.4876   13.3168 C.2     1  UNL1        0.3644
      6 O          64.1019   90.8660   13.7702 O.2     1  UNL1       -0.2422
      7 N          64.1476   88.2913   14.1153 N.am    1  UNL1        0.0288
      8 N          61.7295   87.7451   10.3596 N.pl3   1  UNL1       -0.1888
      9 C          61.7077   86.4139    9.6686 C.3     1  UNL1        0.2343
     10 C          60.9017   86.2319    8.4168 C.3     1  UNL1        0.1929
     11 O          60.1176   87.3810    7.8559 O.3     1  UNL1       -0.3449
     12 C          60.1394   88.7122    8.5468 C.3     1  UNL1        0.1929
     13 C          60.9454   88.8943    9.7987 C.3     1  UNL1        0.2343
     14 C          64.1932   85.7167   14.4604 C.3     1  UNL1        0.1852
     15 C          65.0673   83.8288   11.9462 C.3     1  UNL1        0.1316
     16 N          64.0360   83.4947   12.9828 N.ar    1  UNL1       -0.3124
     17 C          63.6342   84.3625   14.1385 C.ar    1  UNL1        0.1329
     18 N          62.5752   83.6382   14.9157 N.ar    1  UNL1       -0.2303
     19 C          62.3226   82.3229   14.2405 C.ar    1  UNL1        0.0983
     20 C          61.3871   81.1945   14.5590 C.ar    1  UNL1        0.0206
     21 C          61.3544   79.9773   13.6830 C.ar    1  UNL1        0.0016
     22 C          62.2572   79.8886   12.4884 C.ar    1  UNL1        0.0016
     23 C          63.1927   81.0170   12.1698 C.ar    1  UNL1        0.0188
     24 C          63.2254   82.2341   13.0459 C.ar    1  UNL1        0.0787
@<TRIPOS>BOND
     1    15    16    1
     2    16    17   ar
     3    17    14    1
     4    14     1    1
     5     1     2    1
     6     2     3    2
     7     3     8    1
     8     8     9    1
     9     9    10    1
    10    10    11    1
    11    11    12    1
    12    12    13    1
    13     3     4    1
    14     4     5    1
    15     5     6    2
    16     5     7    1
    17    17    18   ar
    18    18    19   ar
    19    19    20   ar
    20    20    21   ar
    21    21    22   ar
    22    22    23   ar
    23    23    24   ar
    24    24    16   ar
    25     7     1    2
    26    24    19   ar
    27    13     8    1
