@<TRIPOS>MOLECULE
*****
 35 39 0 0 0
SMALL
GASTEIGER

@<TRIPOS>ATOM
      1 C          61.1130   88.4580    9.7986 C.2     1  UNL1        0.4048
      2 O          60.4646   89.2015    8.6687 O.2     1  UNL1       -0.2262
      3 N          61.9990   89.1865   10.7651 N.am    1  UNL1       -0.2443
      4 C          62.3280   90.6496   10.7291 C.3     1  UNL1        0.0985
      5 C          63.2440   90.9472   11.8791 C.3     1  UNL1        0.0429
      6 C          63.4811   89.6681   12.6258 C.3     1  UNL1        0.0920
      7 C          62.7117   88.5800   11.9374 C.3     1  UNL1        0.1162
      8 N          64.3374   89.5056   13.8467 N.pl3   1  UNL1       -0.3180
      9 H          65.1476   90.0541   13.9562 H       1  UNL1        0.1482
     10 C          63.9592   88.5075   14.9006 C.ar    1  UNL1        0.1284
     11 C          63.3817   88.9751   16.2037 C.ar    1  UNL1        0.0341
     12 C          63.0035   87.9771   17.2576 C.ar    1  UNL1        0.0043
     13 C          63.2027   86.5114   17.0085 C.ar    1  UNL1        0.0232
     14 C          63.7802   86.0438   15.7055 C.ar    1  UNL1        0.1540
     15 N          64.1584   87.0419   14.6515 N.ar    1  UNL1       -0.2269
     16 C          63.9794   84.5781   15.4564 C.3     1  UNL1        0.4349
     17 F          64.1786   83.1124   15.2073 F       1  UNL1       -0.1644
     18 F          62.6831   84.2838   16.1513 F       1  UNL1       -0.1644
     19 F          65.2757   84.8724   14.7615 F       1  UNL1       -0.1644
     20 O          60.8753   86.9860    9.9621 O.3     1  UNL1       -0.4383
     21 C          61.6448   86.0386   10.5269 C.3     1  UNL1        0.0688
     22 C          62.4220   85.4417    9.3913 C.3     1  UNL1        0.0086
     23 C          63.3997   84.3344    9.6519 C.3     1  UNL1        0.0007
     24 C          63.6001   83.8239   11.0480 C.3     1  UNL1        0.0036
     25 C          62.8228   84.4207   12.1836 C.3     1  UNL1        0.0407
     26 C          61.8452   85.5281   11.9231 C.3     1  UNL1        0.0122
     27 C          61.8886   86.0021    9.4568 C.3     1  UNL1        0.1702
     28 C          62.2216   85.9522    7.9952 C.3     1  UNL1        0.0407
     29 C          63.1993   84.8449    8.2557 C.3     1  UNL1        0.0036
     30 C          61.4444   86.5490    9.1308 C.3     1  UNL1        0.0122
     31 N          60.0188   87.8599   11.4153 N.am    1  UNL1       -0.3288
     32 C          60.6671   87.1460   10.2664 C.2     1  UNL1        0.2184
     33 O          60.1203   87.7821    9.0229 O.2     1  UNL1       -0.2754
     34 H          59.3771   88.5867   11.2443 H       1  UNL1        0.1449
     35 H          60.2350   87.6016   12.3404 H       1  UNL1        0.1449
@<TRIPOS>BOND
     1    31    32   am
     2    32    33    2
     3    21    32    1
     4    21    22    1
     5    22    23    1
     6    23    24    1
     7    24    25    1
     8    25    26    1
     9    25    27    1
    10    27    20    1
    11    20     1    1
    12     1     2    2
    13     1     3   am
    14     3     4    1
    15     4     5    1
    16     5     6    1
    17     6     8    1
    18     8    10    1
    19    10    11   ar
    20    11    12   ar
    21    12    13   ar
    22    13    14   ar
    23    14    16    1
    24    16    17    1
    25    16    18    1
    26    16    19    1
    27    14    15   ar
    28     6     7    1
    29    27    28    1
    30    28    29    1
    31    28    30    1
    32    26    21    1
    33     7     3    1
    34    30    21    1
    35    29    23    1
    36    15    10   ar
    37    31    34    1
    38    31    35    1
    39     8     9    1
@<TRIPOS>MOLECULE
*****
 35 39 0 0 0
SMALL
GASTEIGER

@<TRIPOS>ATOM
      1 C          66.0964   91.9221   13.1665 C.2     1  UNL1        0.4048
      2 O          66.7676   91.4451   14.4202 O.2     1  UNL1       -0.2262
      3 N          64.8888   91.2032   12.6422 N.am    1  UNL1       -0.2443
      4 C          64.2419   89.9993   13.2604 C.3     1  UNL1        0.0985
      5 C          63.0693   89.6140   12.4080 C.3     1  UNL1        0.0429
      6 C          62.9915   90.5799   11.2629 C.3     1  UNL1        0.0920
      7 C          64.1159   91.5620   11.4077 C.3     1  UNL1        0.1162
      8 N          61.9687   90.5660   10.1657 N.pl3   1  UNL1       -0.3180
      9 H          61.6121   91.4138    9.8146 H       1  UNL1        0.1482
     10 C          61.4894   89.2605    9.6036 C.ar    1  UNL1        0.1284
     11 C          60.1665   89.1873    8.9005 C.ar    1  UNL1        0.0341
     12 C          59.6872   87.8818    8.3384 C.ar    1  UNL1        0.0043
     13 C          60.5308   86.6496    8.4794 C.ar    1  UNL1        0.0232
     14 C          61.8537   86.7229    9.1825 C.ar    1  UNL1        0.1540
     15 N          62.3330   88.0284    9.7447 N.ar    1  UNL1       -0.2269
     16 C          62.6974   85.4906    9.3236 C.3     1  UNL1        0.4349
     17 F          63.5411   84.2584    9.4647 F       1  UNL1       -0.1644
     18 F          62.5348   85.5499   10.8136 F       1  UNL1       -0.1644
     19 F          62.8600   85.4314    7.8337 F       1  UNL1       -0.1644
     20 O          66.6328   93.1179   12.4370 O.3     1  UNL1       -0.4383
     21 C          66.6464   93.8713   11.3230 C.3     1  UNL1        0.0688
     22 C          67.4136   93.0643   10.3180 C.3     1  UNL1        0.0086
     23 C          67.6328   93.6014    8.9347 C.3     1  UNL1        0.0007
     24 C          67.0848   94.9455    8.5565 C.3     1  UNL1        0.0036
     25 C          66.3176   95.7525    9.5615 C.3     1  UNL1        0.0407
     26 C          66.0984   95.2154   10.9448 C.3     1  UNL1        0.0122
     27 C          67.2023   92.9621   11.0581 C.3     1  UNL1        0.1702
     28 C          67.9616   91.7202   10.6962 C.3     1  UNL1        0.0407
     29 C          68.1808   92.2573    9.3130 C.3     1  UNL1        0.0036
     30 C          67.1944   92.5272   11.7012 C.3     1  UNL1        0.0122
     31 N          67.6026   92.9931   13.5735 N.am    1  UNL1       -0.3288
     32 C          66.4272   93.3342   12.7063 C.2     1  UNL1        0.2184
     33 O          65.2075   93.0213   13.5215 O.2     1  UNL1       -0.2754
     34 H          67.4587   92.6406   14.4814 H       1  UNL1        0.1449
     35 H          68.5180   93.1218   13.2347 H       1  UNL1        0.1449
@<TRIPOS>BOND
     1    31    32   am
     2    32    33    2
     3    21    32    1
     4    21    22    1
     5    22    23    1
     6    23    24    1
     7    24    25    1
     8    25    26    1
     9    25    27    1
    10    27    20    1
    11    20     1    1
    12     1     2    2
    13     1     3   am
    14     3     4    1
    15     4     5    1
    16     5     6    1
    17     6     8    1
    18     8    10    1
    19    10    11   ar
    20    11    12   ar
    21    12    13   ar
    22    13    14   ar
    23    14    16    1
    24    16    17    1
    25    16    18    1
    26    16    19    1
    27    14    15   ar
    28     6     7    1
    29    27    28    1
    30    28    29    1
    31    28    30    1
    32    26    21    1
    33     7     3    1
    34    30    21    1
    35    29    23    1
    36    15    10   ar
    37    31    34    1
    38    31    35    1
    39     8     9    1
@<TRIPOS>MOLECULE
*****
 35 39 0 0 0
SMALL
GASTEIGER

@<TRIPOS>ATOM
      1 C          60.8114   89.1965   10.6364 C.2     1  UNL1        0.4048
      2 O          60.0621   90.0764    9.6803 O.2     1  UNL1       -0.2262
      3 N          61.3548   87.8774   10.1731 N.am    1  UNL1       -0.2443
      4 C          61.2281   87.3079    8.7912 C.3     1  UNL1        0.0985
      5 C          61.9153   85.9747    8.7743 C.3     1  UNL1        0.0429
      6 C          62.4669   85.7202   10.1459 C.3     1  UNL1        0.0920
      7 C          62.1204   86.8961   11.0103 C.3     1  UNL1        0.1162
      8 N          63.2307   84.5035   10.5772 N.pl3   1  UNL1       -0.3180
      9 H          63.8702   84.0795    9.9604 H       1  UNL1        0.1482
     10 C          63.0201   83.9327   11.9483 C.ar    1  UNL1        0.1284
     11 C          62.4743   82.5446   12.1072 C.ar    1  UNL1        0.0341
     12 C          62.2637   81.9739   13.4782 C.ar    1  UNL1        0.0043
     13 C          62.5989   82.7912   14.6904 C.ar    1  UNL1        0.0232
     14 C          63.1446   84.1793   14.5316 C.ar    1  UNL1        0.1540
     15 N          63.3552   84.7501   13.1605 N.ar    1  UNL1       -0.2269
     16 C          63.4798   84.9968   15.7439 C.3     1  UNL1        0.4349
     17 F          63.8149   85.8142   16.9561 F       1  UNL1       -0.1644
     18 F          62.1405   84.6695   16.3348 F       1  UNL1       -0.1644
     19 F          64.8190   85.3240   15.1530 F       1  UNL1       -0.1644
     20 O          61.0173   89.6356   12.0558 O.3     1  UNL1       -0.4383
     21 C          62.0301   90.3316   11.5092 C.3     1  UNL1        0.0688
     22 C          63.0892   90.3740   12.5705 C.3     1  UNL1        0.0086
     23 C          64.3857   91.0813   12.3083 C.3     1  UNL1        0.0007
     24 C          64.6230   91.7462   10.9849 C.3     1  UNL1        0.0036
     25 C          63.5639   91.7038    9.9236 C.3     1  UNL1        0.0407
     26 C          62.2674   90.9965   10.1857 C.3     1  UNL1        0.0122
     27 C          62.3774   90.0685   12.5171 C.3     1  UNL1        0.1702
     28 C          62.8518   89.7091   13.8940 C.3     1  UNL1        0.0407
     29 C          64.1483   90.4164   13.6318 C.3     1  UNL1        0.0036
     30 C          61.7927   89.6667   12.8327 C.3     1  UNL1        0.0122
     31 N          59.4639   90.4114   11.9076 N.am    1  UNL1       -0.3288
     32 C          60.7335   89.6243   11.7713 C.2     1  UNL1        0.2184
     33 O          60.3489   88.1854   11.9492 O.2     1  UNL1       -0.2754
     34 H          58.6130   89.9472   12.0796 H       1  UNL1        0.1449
     35 H          59.4816   91.3923   11.8249 H       1  UNL1        0.1449
@<TRIPOS>BOND
     1    31    32   am
     2    32    33    2
     3    21    32    1
     4    21    22    1
     5    22    23    1
     6    23    24    1
     7    24    25    1
     8    25    26    1
     9    25    27    1
    10    27    20    1
    11    20     1    1
    12     1     2    2
    13     1     3   am
    14     3     4    1
    15     4     5    1
    16     5     6    1
    17     6     8    1
    18     8    10    1
    19    10    11   ar
    20    11    12   ar
    21    12    13   ar
    22    13    14   ar
    23    14    16    1
    24    16    17    1
    25    16    18    1
    26    16    19    1
    27    14    15   ar
    28     6     7    1
    29    27    28    1
    30    28    29    1
    31    28    30    1
    32    26    21    1
    33     7     3    1
    34    30    21    1
    35    29    23    1
    36    15    10   ar
    37    31    34    1
    38    31    35    1
    39     8     9    1
@<TRIPOS>MOLECULE
*****
 35 39 0 0 0
SMALL
GASTEIGER

@<TRIPOS>ATOM
      1 C          63.6641   90.4118   15.5055 C.2     1  UNL1        0.4048
      2 O          63.1068   91.1066   16.7124 O.2     1  UNL1       -0.2262
      3 N          63.8272   88.9207   15.5071 N.am    1  UNL1       -0.2443
      4 C          63.4787   87.9968   16.6362 C.3     1  UNL1        0.0985
      5 C          63.8037   86.5968   16.2068 C.3     1  UNL1        0.0429
      6 C          64.3530   86.6555   14.8122 C.3     1  UNL1        0.0920
      7 C          64.3676   88.0917   14.3798 C.3     1  UNL1        0.1162
      8 N          64.8079   85.4836   13.9938 N.pl3   1  UNL1       -0.3180
      9 H          65.6899   85.5011   13.5569 H       1  UNL1        0.1482
     10 C          63.9188   84.2851   13.8410 C.ar    1  UNL1        0.1284
     11 C          62.9798   83.9022   14.9462 C.ar    1  UNL1        0.0341
     12 C          62.0908   82.7038   14.7935 C.ar    1  UNL1        0.0043
     13 C          62.1408   81.8883   13.5355 C.ar    1  UNL1        0.0232
     14 C          63.0799   82.2712   12.4303 C.ar    1  UNL1        0.1540
     15 N          63.9689   83.4697   12.5831 N.ar    1  UNL1       -0.2269
     16 C          63.1300   81.4557   11.1723 C.3     1  UNL1        0.4349
     17 F          63.1801   80.6402    9.9144 F       1  UNL1       -0.1644
     18 F          62.6985   80.2425   11.9417 F       1  UNL1       -0.1644
     19 F          63.5615   82.6689   10.4031 F       1  UNL1       -0.1644
     20 O          64.0582   91.2082   14.2971 O.3     1  UNL1       -0.4383
     21 C          64.7645   91.5938   13.2195 C.3     1  UNL1        0.0688
     22 C          66.1855   91.6706   13.6938 C.3     1  UNL1        0.0086
     23 C          67.2724   92.0768   12.7433 C.3     1  UNL1        0.0007
     24 C          66.9385   92.4063   11.3186 C.3     1  UNL1        0.0036
     25 C          65.5175   92.3295   10.8443 C.3     1  UNL1        0.0407
     26 C          64.4306   91.9233   11.7947 C.3     1  UNL1        0.0122
     27 C          65.5062   91.4870   14.0221 C.3     1  UNL1        0.1702
     28 C          66.5194   91.3411   15.1185 C.3     1  UNL1        0.0407
     29 C          67.6064   91.7474   14.1681 C.3     1  UNL1        0.0036
     30 C          65.0985   91.2644   14.6442 C.3     1  UNL1        0.0122
     31 N          62.5904   90.2602   13.7139 N.am    1  UNL1       -0.3288
     32 C          63.6775   91.1876   14.1699 C.2     1  UNL1        0.2184
     33 O          63.3739   91.5071   15.6037 O.2     1  UNL1       -0.2754
     34 H          61.8769   89.9936   14.3377 H       1  UNL1        0.1449
     35 H          62.5903   89.9181   12.7907 H       1  UNL1        0.1449
@<TRIPOS>BOND
     1    31    32   am
     2    32    33    2
     3    21    32    1
     4    21    22    1
     5    22    23    1
     6    23    24    1
     7    24    25    1
     8    25    26    1
     9    25    27    1
    10    27    20    1
    11    20     1    1
    12     1     2    2
    13     1     3   am
    14     3     4    1
    15     4     5    1
    16     5     6    1
    17     6     8    1
    18     8    10    1
    19    10    11   ar
    20    11    12   ar
    21    12    13   ar
    22    13    14   ar
    23    14    16    1
    24    16    17    1
    25    16    18    1
    26    16    19    1
    27    14    15   ar
    28     6     7    1
    29    27    28    1
    30    28    29    1
    31    28    30    1
    32    26    21    1
    33     7     3    1
    34    30    21    1
    35    29    23    1
    36    15    10   ar
    37    31    34    1
    38    31    35    1
    39     8     9    1
@<TRIPOS>MOLECULE
*****
 35 39 0 0 0
SMALL
GASTEIGER

@<TRIPOS>ATOM
      1 C          63.7514   90.7036   15.4693 C.2     1  UNL1        0.4048
      2 O          63.2784   91.5984   16.5763 O.2     1  UNL1       -0.2262
      3 N          63.7487   89.2152   15.6550 N.am    1  UNL1       -0.2443
      4 C          63.3040   88.4809   16.8850 C.3     1  UNL1        0.0985
      5 C          63.4707   87.0116   16.6335 C.3     1  UNL1        0.0429
      6 C          64.0184   86.8377   15.2479 C.3     1  UNL1        0.0920
      7 C          64.1902   88.1996   14.6432 C.3     1  UNL1        0.1162
      8 N          64.3382   85.5314   14.5837 N.pl3   1  UNL1       -0.3180
      9 H          64.9425   84.8905   15.0234 H       1  UNL1        0.1482
     10 C          63.7372   85.2014   13.2496 C.ar    1  UNL1        0.1284
     11 C          63.9684   83.8524   12.6358 C.ar    1  UNL1        0.0341
     12 C          63.3674   83.5225   11.3018 C.ar    1  UNL1        0.0043
     13 C          62.5353   84.5415   10.5813 C.ar    1  UNL1        0.0232
     14 C          62.3041   85.8905   11.1951 C.ar    1  UNL1        0.1540
     15 N          62.9051   86.2205   12.5292 N.ar    1  UNL1       -0.2269
     16 C          61.4719   86.9097   10.4746 C.3     1  UNL1        0.4349
     17 F          60.6398   87.9288    9.7543 F       1  UNL1       -0.1644
     18 F          62.1796   88.0081   11.2111 F       1  UNL1       -0.1644
     19 F          60.7642   85.8112    9.7382 F       1  UNL1       -0.1644
     20 O          64.2270   91.2973   14.1765 O.3     1  UNL1       -0.4383
     21 C          64.9827   91.6696   13.1281 C.3     1  UNL1        0.0688
     22 C          66.3854   91.7154   13.6574 C.3     1  UNL1        0.0086
     23 C          67.5169   92.0999   12.7509 C.3     1  UNL1        0.0007
     24 C          67.2456   92.4386   11.3150 C.3     1  UNL1        0.0036
     25 C          65.8429   92.3927   10.7857 C.3     1  UNL1        0.0407
     26 C          64.7115   92.0082   11.6922 C.3     1  UNL1        0.0122
     27 C          65.6902   91.5458   13.9587 C.3     1  UNL1        0.1702
     28 C          66.6566   91.3768   15.0933 C.3     1  UNL1        0.0407
     29 C          67.7881   91.7613   14.1868 C.3     1  UNL1        0.0036
     30 C          65.2539   91.3309   14.5640 C.3     1  UNL1        0.0122
     31 N          62.7673   90.3753   13.5370 N.am    1  UNL1       -0.3288
     32 C          63.8511   91.2850   14.0347 C.2     1  UNL1        0.2184
     33 O          63.4954   91.6139   15.4542 O.2     1  UNL1       -0.2754
     34 H          62.0247   90.1230   14.1320 H       1  UNL1        0.1449
     35 H          62.7986   90.0306   12.6153 H       1  UNL1        0.1449
@<TRIPOS>BOND
     1    31    32   am
     2    32    33    2
     3    21    32    1
     4    21    22    1
     5    22    23    1
     6    23    24    1
     7    24    25    1
     8    25    26    1
     9    25    27    1
    10    27    20    1
    11    20     1    1
    12     1     2    2
    13     1     3   am
    14     3     4    1
    15     4     5    1
    16     5     6    1
    17     6     8    1
    18     8    10    1
    19    10    11   ar
    20    11    12   ar
    21    12    13   ar
    22    13    14   ar
    23    14    16    1
    24    16    17    1
    25    16    18    1
    26    16    19    1
    27    14    15   ar
    28     6     7    1
    29    27    28    1
    30    28    29    1
    31    28    30    1
    32    26    21    1
    33     7     3    1
    34    30    21    1
    35    29    23    1
    36    15    10   ar
    37    31    34    1
    38    31    35    1
    39     8     9    1
@<TRIPOS>MOLECULE
*****
 35 39 0 0 0
SMALL
GASTEIGER

@<TRIPOS>ATOM
      1 C          61.0914   88.1536    9.8855 C.2     1  UNL1        0.4048
      2 O          60.5654   88.5273    8.5314 O.2     1  UNL1       -0.2262
      3 N          62.0158   89.0836   10.6139 N.am    1  UNL1       -0.2443
      4 C          62.4996   90.4137   10.1173 C.3     1  UNL1        0.0985
      5 C          63.4016   90.9989   11.1633 C.3     1  UNL1        0.0429
      6 C          63.4752   90.0304   12.3064 C.3     1  UNL1        0.0920
      7 C          62.6187   88.8467   11.9668 C.3     1  UNL1        0.1162
      8 N          64.2663   90.2135   13.5675 N.pl3   1  UNL1       -0.3180
      9 H          64.2258   89.5324   14.2772 H       1  UNL1        0.1482
     10 C          65.1191   91.4343   13.7475 C.ar    1  UNL1        0.1284
     11 C          65.7059   91.7478   15.0918 C.ar    1  UNL1        0.0341
     12 C          66.5587   92.9686   15.2717 C.ar    1  UNL1        0.0043
     13 C          66.8246   93.8759   14.1073 C.ar    1  UNL1        0.0232
     14 C          66.2377   93.5625   12.7629 C.ar    1  UNL1        0.1540
     15 N          65.3849   92.3416   12.5830 N.ar    1  UNL1       -0.2269
     16 C          66.5036   94.4699   11.5984 C.3     1  UNL1        0.4349
     17 F          66.7694   95.3773   10.4339 F       1  UNL1       -0.1644
     18 F          66.1107   95.6539   12.4313 F       1  UNL1       -0.1644
     19 F          66.8964   93.2859   10.7655 F       1  UNL1       -0.1644
     20 O          60.6929   86.8499   10.5111 O.3     1  UNL1       -0.4383
     21 C          61.5550   86.1097    9.7916 C.3     1  UNL1        0.0688
     22 C          62.3020   85.2915   10.8028 C.3     1  UNL1        0.0086
     23 C          63.3642   84.3321   10.3542 C.3     1  UNL1        0.0007
     24 C          63.6793   84.1908    8.8945 C.3     1  UNL1        0.0036
     25 C          62.9323   85.0090    7.8833 C.3     1  UNL1        0.0407
     26 C          61.8701   85.9684    8.3319 C.3     1  UNL1        0.0122
     27 C          61.7375   85.8236   10.8360 C.3     1  UNL1        0.1702
     28 C          61.9869   85.4327   12.2625 C.3     1  UNL1        0.0407
     29 C          63.0491   84.4733   11.8139 C.3     1  UNL1        0.0036
     30 C          61.2399   86.2509   11.2513 C.3     1  UNL1        0.0122
     31 N          59.3439   87.3942    9.3322 N.am    1  UNL1       -0.3288
     32 C          60.4927   87.0691   10.2402 C.2     1  UNL1        0.2184
     33 O          60.2680   87.8641   11.4922 O.2     1  UNL1       -0.2754
     34 H          58.6467   88.0239    9.6266 H       1  UNL1        0.1449
     35 H          59.2869   86.9778    8.4419 H       1  UNL1        0.1449
@<TRIPOS>BOND
     1    31    32   am
     2    32    33    2
     3    21    32    1
     4    21    22    1
     5    22    23    1
     6    23    24    1
     7    24    25    1
     8    25    26    1
     9    25    27    1
    10    27    20    1
    11    20     1    1
    12     1     2    2
    13     1     3   am
    14     3     4    1
    15     4     5    1
    16     5     6    1
    17     6     8    1
    18     8    10    1
    19    10    11   ar
    20    11    12   ar
    21    12    13   ar
    22    13    14   ar
    23    14    16    1
    24    16    17    1
    25    16    18    1
    26    16    19    1
    27    14    15   ar
    28     6     7    1
    29    27    28    1
    30    28    29    1
    31    28    30    1
    32    26    21    1
    33     7     3    1
    34    30    21    1
    35    29    23    1
    36    15    10   ar
    37    31    34    1
    38    31    35    1
    39     8     9    1
@<TRIPOS>MOLECULE
*****
 35 39 0 0 0
SMALL
GASTEIGER

@<TRIPOS>ATOM
      1 C          60.9616   88.3720    9.9647 C.2     1  UNL1        0.4048
      2 O          60.2029   89.1745    8.9498 O.2     1  UNL1       -0.2262
      3 N          61.9043   89.0564   10.9096 N.am    1  UNL1       -0.2443
      4 C          62.1901   90.5281   10.9582 C.3     1  UNL1        0.0985
      5 C          63.1892   90.7706   12.0504 C.3     1  UNL1        0.0429
      6 C          63.5210   89.4487   12.6769 C.3     1  UNL1        0.0920
      7 C          62.7269   88.3893   11.9718 C.3     1  UNL1        0.1162
      8 N          64.4787   89.2253   13.8095 N.pl3   1  UNL1       -0.3180
      9 H          64.8135   88.3192   13.9997 H       1  UNL1        0.1482
     10 C          64.9264   90.3825   14.6525 C.ar    1  UNL1        0.1284
     11 C          64.0099   90.9490   15.6961 C.ar    1  UNL1        0.0341
     12 C          64.4575   92.1061   16.5390 C.ar    1  UNL1        0.0043
     13 C          65.8216   92.6969   16.3383 C.ar    1  UNL1        0.0232
     14 C          66.7381   92.1304   15.2946 C.ar    1  UNL1        0.1540
     15 N          66.2904   90.9732   14.4517 N.ar    1  UNL1       -0.2269
     16 C          68.1022   92.7211   15.0939 C.3     1  UNL1        0.4349
     17 F          69.4663   93.3118   14.8932 F       1  UNL1       -0.1644
     18 F          67.9117   93.5750   16.3123 F       1  UNL1       -0.1644
     19 F          68.2927   91.8672   13.8756 F       1  UNL1       -0.1644
     20 O          60.7775   86.8850   10.0348 O.3     1  UNL1       -0.4383
     21 C          61.5967   85.9397   10.5291 C.3     1  UNL1        0.0688
     22 C          62.3700   85.4386    9.3455 C.3     1  UNL1        0.0086
     23 C          63.3963   84.3592    9.5227 C.3     1  UNL1        0.0007
     24 C          63.6493   83.7809   10.8834 C.3     1  UNL1        0.0036
     25 C          62.8761   84.2820   12.0669 C.3     1  UNL1        0.0407
     26 C          61.8498   85.3614   11.8898 C.3     1  UNL1        0.0122
     27 C          61.8166   85.9724    9.4537 C.3     1  UNL1        0.1702
     28 C          62.1169   86.0170    7.9848 C.3     1  UNL1        0.0407
     29 C          63.1433   84.9375    8.1620 C.3     1  UNL1        0.0036
     30 C          61.3437   86.5181    9.1684 C.3     1  UNL1        0.0122
     31 N          60.0410   87.7543   11.5476 N.am    1  UNL1       -0.3288
     32 C          60.5703   87.0193   10.3520 C.2     1  UNL1        0.2184
     33 O          59.8708   87.6069    9.1624 O.2     1  UNL1       -0.2754
     34 H          59.3674   88.4628   11.4314 H       1  UNL1        0.1449
     35 H          60.3672   87.5282   12.4486 H       1  UNL1        0.1449
@<TRIPOS>BOND
     1    31    32   am
     2    32    33    2
     3    21    32    1
     4    21    22    1
     5    22    23    1
     6    23    24    1
     7    24    25    1
     8    25    26    1
     9    25    27    1
    10    27    20    1
    11    20     1    1
    12     1     2    2
    13     1     3   am
    14     3     4    1
    15     4     5    1
    16     5     6    1
    17     6     8    1
    18     8    10    1
    19    10    11   ar
    20    11    12   ar
    21    12    13   ar
    22    13    14   ar
    23    14    16    1
    24    16    17    1
    25    16    18    1
    26    16    19    1
    27    14    15   ar
    28     6     7    1
    29    27    28    1
    30    28    29    1
    31    28    30    1
    32    26    21    1
    33     7     3    1
    34    30    21    1
    35    29    23    1
    36    15    10   ar
    37    31    34    1
    38    31    35    1
    39     8     9    1
@<TRIPOS>MOLECULE
*****
 35 39 0 0 0
SMALL
GASTEIGER

@<TRIPOS>ATOM
      1 C          60.6857   89.2382   10.6591 C.2     1  UNL1        0.4048
      2 O          59.9049   90.1128    9.7235 O.2     1  UNL1       -0.2262
      3 N          61.2541   87.9383   10.1720 N.am    1  UNL1       -0.2443
      4 C          61.1243   87.3841    8.7842 C.3     1  UNL1        0.0985
      5 C          61.8421   86.0677    8.7417 C.3     1  UNL1        0.0429
      6 C          62.4155   85.8083   10.1032 C.3     1  UNL1        0.0920
      7 C          62.0521   86.9644   10.9872 C.3     1  UNL1        0.1162
      8 N          63.2124   84.6042   10.5095 N.pl3   1  UNL1       -0.3180
      9 H          63.8503   84.2000    9.8779 H       1  UNL1        0.1482
     10 C          63.0375   84.0159   11.8782 C.ar    1  UNL1        0.1284
     11 C          63.3760   84.8285   13.0927 C.ar    1  UNL1        0.0341
     12 C          63.2011   84.2403   14.4614 C.ar    1  UNL1        0.0043
     13 C          62.6877   82.8394   14.6156 C.ar    1  UNL1        0.0232
     14 C          62.3492   82.0267   13.4011 C.ar    1  UNL1        0.1540
     15 N          62.5241   82.6150   12.0324 N.ar    1  UNL1       -0.2269
     16 C          61.8358   80.6257   13.5553 C.3     1  UNL1        0.4349
     17 F          61.3224   79.2248   13.7095 F       1  UNL1       -0.1644
     18 F          60.8303   81.1048   14.5600 F       1  UNL1       -0.1644
     19 F          62.8412   80.1467   12.5506 F       1  UNL1       -0.1644
     20 O          60.8981   89.6635   12.0817 O.3     1  UNL1       -0.4383
     21 C          61.9262   90.3286   11.5254 C.3     1  UNL1        0.0688
     22 C          62.9778   90.3816   12.5936 C.3     1  UNL1        0.0086
     23 C          64.2876   91.0609   12.3235 C.3     1  UNL1        0.0007
     24 C          64.5457   91.6872   10.9852 C.3     1  UNL1        0.0036
     25 C          63.4941   91.6343    9.9170 C.3     1  UNL1        0.0407
     26 C          62.1843   90.9550   10.1871 C.3     1  UNL1        0.0122
     27 C          62.2616   90.0863   12.5425 C.3     1  UNL1        0.1702
     28 C          62.7197   89.7553   13.9319 C.3     1  UNL1        0.0407
     29 C          64.0295   90.4346   13.6618 C.3     1  UNL1        0.0036
     30 C          61.6681   89.7023   12.8637 C.3     1  UNL1        0.0122
     31 N          59.3612   90.4616   11.9170 N.am    1  UNL1       -0.3288
     32 C          60.6163   89.6493   11.7954 C.2     1  UNL1        0.2184
     33 O          60.2050   88.2206   11.9942 O.2     1  UNL1       -0.2754
     34 H          58.5016   90.0157   12.0942 H       1  UNL1        0.1449
     35 H          59.3971   91.4406   11.8195 H       1  UNL1        0.1449
@<TRIPOS>BOND
     1    31    32   am
     2    32    33    2
     3    21    32    1
     4    21    22    1
     5    22    23    1
     6    23    24    1
     7    24    25    1
     8    25    26    1
     9    25    27    1
    10    27    20    1
    11    20     1    1
    12     1     2    2
    13     1     3   am
    14     3     4    1
    15     4     5    1
    16     5     6    1
    17     6     8    1
    18     8    10    1
    19    10    11   ar
    20    11    12   ar
    21    12    13   ar
    22    13    14   ar
    23    14    16    1
    24    16    17    1
    25    16    18    1
    26    16    19    1
    27    14    15   ar
    28     6     7    1
    29    27    28    1
    30    28    29    1
    31    28    30    1
    32    26    21    1
    33     7     3    1
    34    30    21    1
    35    29    23    1
    36    15    10   ar
    37    31    34    1
    38    31    35    1
    39     8     9    1
@<TRIPOS>MOLECULE
*****
 35 39 0 0 0
SMALL
GASTEIGER

@<TRIPOS>ATOM
      1 C          60.8263   89.5241   10.6808 C.2     1  UNL1        0.4048
      2 O          59.7663   90.3119    9.9696 O.2     1  UNL1       -0.2262
      3 N          61.1559   88.1322   10.2294 N.am    1  UNL1       -0.2443
      4 C          60.5134   87.3997    9.0889 C.3     1  UNL1        0.0985
      5 C          61.1464   86.0431    8.9938 C.3     1  UNL1        0.0429
      6 C          62.1800   85.9371   10.0756 C.3     1  UNL1        0.0920
      7 C          62.1859   87.2282   10.8392 C.3     1  UNL1        0.1162
      8 N          63.0543   84.7487   10.3463 N.pl3   1  UNL1       -0.3180
      9 H          63.6604   84.4139    9.6465 H       1  UNL1        0.1482
     10 C          63.0051   84.0704   11.6833 C.ar    1  UNL1        0.1284
     11 C          62.6279   82.6215   11.7758 C.ar    1  UNL1        0.0341
     12 C          62.5787   81.9432   13.1127 C.ar    1  UNL1        0.0043
     13 C          62.9067   82.7137   14.3571 C.ar    1  UNL1        0.0232
     14 C          63.2840   84.1626   14.2646 C.ar    1  UNL1        0.1540
     15 N          63.3332   84.8409   12.9277 N.ar    1  UNL1       -0.2269
     16 C          63.6120   84.9331   15.5092 C.3     1  UNL1        0.4349
     17 F          63.9401   85.7037   16.7536 F       1  UNL1       -0.1644
     18 F          64.8970   85.3922   14.8861 F       1  UNL1       -0.1644
     19 F          62.3271   84.4741   16.1321 F       1  UNL1       -0.1644
     20 O          61.5566   90.1283   11.8433 O.3     1  UNL1       -0.4383
     21 C          62.6386   90.3639   12.6066 C.3     1  UNL1        0.0688
     22 C          63.5915   91.1004   11.7125 C.3     1  UNL1        0.0086
     23 C          64.9288   91.5333   12.2362 C.3     1  UNL1        0.0007
     24 C          65.3131   91.2297   13.6539 C.3     1  UNL1        0.0036
     25 C          64.3602   90.4931   14.5480 C.3     1  UNL1        0.0407
     26 C          63.0230   90.0602   14.0244 C.3     1  UNL1        0.0122
     27 C          62.8789   90.8035   11.6294 C.3     1  UNL1        0.1702
     28 C          63.2072   91.4040   10.2947 C.3     1  UNL1        0.0407
     29 C          64.5444   91.8369   10.8184 C.3     1  UNL1        0.0036
     30 C          62.2543   90.6675   11.1888 C.3     1  UNL1        0.0122
     31 N          60.3730   90.9385   11.4721 N.am    1  UNL1       -0.3288
     32 C          61.3013   89.9309   12.0829 C.2     1  UNL1        0.2184
     33 O          60.5879   88.6135   12.0091 O.2     1  UNL1       -0.2754
     34 H          59.4953   90.6543   11.1284 H       1  UNL1        0.1449
     35 H          60.6415   91.8840   11.4148 H       1  UNL1        0.1449
@<TRIPOS>BOND
     1    31    32   am
     2    32    33    2
     3    21    32    1
     4    21    22    1
     5    22    23    1
     6    23    24    1
     7    24    25    1
     8    25    26    1
     9    25    27    1
    10    27    20    1
    11    20     1    1
    12     1     2    2
    13     1     3   am
    14     3     4    1
    15     4     5    1
    16     5     6    1
    17     6     8    1
    18     8    10    1
    19    10    11   ar
    20    11    12   ar
    21    12    13   ar
    22    13    14   ar
    23    14    16    1
    24    16    17    1
    25    16    18    1
    26    16    19    1
    27    14    15   ar
    28     6     7    1
    29    27    28    1
    30    28    29    1
    31    28    30    1
    32    26    21    1
    33     7     3    1
    34    30    21    1
    35    29    23    1
    36    15    10   ar
    37    31    34    1
    38    31    35    1
    39     8     9    1
