@<TRIPOS>MOLECULE
*****
 38 43 0 0 0
SMALL
GASTEIGER

@<TRIPOS>ATOM
      1 C          64.8981   91.1988   13.1685 C.ar    1  UNL1        0.2389
      2 N          63.8856   90.8307   12.1249 N.ar    1  UNL1       -0.1956
      3 C          63.2431   89.4754   12.1484 C.ar    1  UNL1        0.1424
      4 C          63.6132   88.4883   13.2154 C.ar    1  UNL1        0.0785
      5 S          63.1507   87.0885   13.4918 S.2     1  UNL1       -0.0856
      6 C          63.8774   86.5914   14.7062 C.ar    1  UNL1        0.0251
      7 C          64.7890   87.6841   15.1804 C.ar    1  UNL1        0.0233
      8 C          64.6257   88.8565   14.2591 C.ar    1  UNL1        0.0933
      9 N          65.2682   90.2117   14.2356 N.ar    1  UNL1       -0.2105
     10 C          66.1601   93.2565   14.3167 C.ar    1  UNL1        0.1263
     11 N          66.6788   94.5814   13.8415 N.ar    1  UNL1       -0.2305
     12 C          66.3799   94.6977   12.3762 C.ar    1  UNL1        0.0987
     13 C          66.6573   95.7827   11.3783 C.ar    1  UNL1        0.0206
     14 C          66.2313   95.6147    9.9500 C.ar    1  UNL1        0.0016
     15 C          65.5279   94.3617    9.5195 C.ar    1  UNL1        0.0016
     16 C          65.2504   93.2768   10.5174 C.ar    1  UNL1        0.0192
     17 C          65.6764   93.4448   11.9457 C.ar    1  UNL1        0.0854
     18 N          65.5406   92.5541   13.1450 N.ar    1  UNL1       -0.2632
     19 C          67.5816   92.3923   16.3123 C.3     1  UNL1        0.0084
     20 C          66.2459   92.7271   15.7175 C.3     1  UNL1        0.0644
     21 N          62.2306   89.1073   11.1047 N.pl3   1  UNL1       -0.2876
     22 C          62.3352   87.7935   10.3886 C.3     1  UNL1        0.1243
     23 C          61.3226   87.4253    9.3450 C.3     1  UNL1        0.1636
     24 O          60.2054   88.3710    9.0174 O.3     1  UNL1       -0.3501
     25 C          60.1007   89.6849    9.7335 C.3     1  UNL1        0.1636
     26 C          61.1133   90.0530   10.7772 C.3     1  UNL1        0.1243
     27 C          63.7202   85.2391   15.3358 C.3     1  UNL1        0.1057
     28 N          63.5022   84.0311   14.4737 N.3     1  UNL1       -0.2685
     29 C          62.3521   83.1091   14.7515 C.3     1  UNL1        0.0725
     30 C          62.1341   81.9011   13.8895 C.3     1  UNL1        0.0197
     31 C          63.0662   81.6150   12.7496 C.3     1  UNL1        0.0274
     32 C          64.2163   82.5369   12.4718 C.3     1  UNL1        0.0197
     33 C          64.4344   83.7450   13.3339 C.3     1  UNL1        0.0725
     34 C          62.8482   80.4070   11.8876 C.3     1  UNL1        0.0885
     35 C          62.3935   79.6319   13.0886 C.3     1  UNL1        0.0293
     36 C          63.3030   81.1821   10.6865 C.3     1  UNL1        0.0293
     37 O          62.6303   79.1990   11.0254 O.3     1  UNL1       -0.3867
     38 H          62.3061   78.4660   11.5718 H       1  UNL1        0.2102
@<TRIPOS>BOND
     1    19    20    1
     2    20    10    1
     3    10    11   ar
     4    11    12   ar
     5    12    13   ar
     6    13    14   ar
     7    14    15   ar
     8    15    16   ar
     9    16    17   ar
    10    17    18   ar
    11    18     1    1
    12     1     2   ar
    13     2     3   ar
    14     3    21    1
    15    21    22    1
    16    22    23    1
    17    23    24    1
    18    24    25    1
    19    25    26    1
    20     3     4   ar
    21     4     5   ar
    22     5     6   ar
    23     6    27    1
    24    27    28    1
    25    28    29    1
    26    29    30    1
    27    30    31    1
    28    31    34    1
    29    34    35    1
    30    34    36    1
    31    34    37    1
    32    31    32    1
    33    32    33    1
    34     6     7   ar
    35     7     8   ar
    36     8     9   ar
    37    18    10   ar
    38     9     1   ar
    39    17    12   ar
    40    26    21    1
    41     8     4   ar
    42    33    28    1
    43    37    38    1
@<TRIPOS>MOLECULE
*****
 38 43 0 0 0
SMALL
GASTEIGER

@<TRIPOS>ATOM
      1 C          63.0189   89.6996   12.5864 C.ar    1  UNL1        0.2389
      2 N          63.1883   88.2216   12.3951 N.ar    1  UNL1       -0.1956
      3 C          62.4824   87.5252   11.2696 C.ar    1  UNL1        0.1424
      4 C          61.6071   88.3068   10.3354 C.ar    1  UNL1        0.0785
      5 S          60.7912   87.8969    9.1454 S.2     1  UNL1       -0.0856
      6 C          60.1174   89.1215    8.6011 C.ar    1  UNL1        0.0251
      7 C          60.5170   90.2884    9.4548 C.ar    1  UNL1        0.0233
      8 C          61.4376   89.7849   10.5266 C.ar    1  UNL1        0.0933
      9 N          62.1435   90.4813   11.6521 N.ar    1  UNL1       -0.2105
     10 C          63.5376   90.1212   15.1745 C.ar    1  UNL1        0.1263
     11 N          64.4390   91.0449   15.9388 N.ar    1  UNL1       -0.2305
     12 C          65.1833   91.8907   14.9485 C.ar    1  UNL1        0.0987
     13 C          66.2060   92.9742   15.1223 C.ar    1  UNL1        0.0206
     14 C          66.7872   93.6567   13.9197 C.ar    1  UNL1        0.0016
     15 C          66.3458   93.2557   12.5433 C.ar    1  UNL1        0.0016
     16 C          65.3232   92.1722   12.3696 C.ar    1  UNL1        0.0192
     17 C          64.7420   91.4897   13.5722 C.ar    1  UNL1        0.0854
     18 N          63.7249   90.3961   13.7118 N.ar    1  UNL1       -0.2632
     19 C          63.0458   88.2964   16.9572 C.3     1  UNL1        0.0084
     20 C          62.6116   89.1016   15.7685 C.3     1  UNL1        0.0644
     21 N          62.6519   86.0471   11.0784 N.pl3   1  UNL1       -0.2876
     22 C          62.9609   85.4975    9.7174 C.3     1  UNL1        0.1243
     23 C          63.1303   84.0194    9.5262 C.3     1  UNL1        0.1636
     24 O          62.9908   83.0909   10.6960 O.3     1  UNL1       -0.3501
     25 C          62.6818   83.6406   12.0570 C.3     1  UNL1        0.1636
     26 C          62.5123   85.1186   12.2482 C.3     1  UNL1        0.1243
     27 C          59.2045   89.1708    7.4120 C.3     1  UNL1        0.1057
     28 N          59.5397   90.0517    6.2451 N.3     1  UNL1       -0.2685
     29 C          58.4699   90.8834    5.6017 C.3     1  UNL1        0.0725
     30 C          58.8050   91.7644    4.4348 C.3     1  UNL1        0.0197
     31 C          60.2098   91.8136    3.9113 C.3     1  UNL1        0.0274
     32 C          61.2796   90.9819    4.5546 C.3     1  UNL1        0.0197
     33 C          60.9445   90.1010    5.7215 C.3     1  UNL1        0.0725
     34 C          60.5449   92.6945    2.7444 C.3     1  UNL1        0.0885
     35 C          59.0839   92.9399    2.5099 C.3     1  UNL1        0.0293
     36 C          62.0061   92.4491    2.9787 C.3     1  UNL1        0.0293
     37 O          60.8802   93.5754    1.5774 O.3     1  UNL1       -0.3867
     38 H          60.0616   93.9150    1.1829 H       1  UNL1        0.2102
@<TRIPOS>BOND
     1    19    20    1
     2    20    10    1
     3    10    11   ar
     4    11    12   ar
     5    12    13   ar
     6    13    14   ar
     7    14    15   ar
     8    15    16   ar
     9    16    17   ar
    10    17    18   ar
    11    18     1    1
    12     1     2   ar
    13     2     3   ar
    14     3    21    1
    15    21    22    1
    16    22    23    1
    17    23    24    1
    18    24    25    1
    19    25    26    1
    20     3     4   ar
    21     4     5   ar
    22     5     6   ar
    23     6    27    1
    24    27    28    1
    25    28    29    1
    26    29    30    1
    27    30    31    1
    28    31    34    1
    29    34    35    1
    30    34    36    1
    31    34    37    1
    32    31    32    1
    33    32    33    1
    34     6     7   ar
    35     7     8   ar
    36     8     9   ar
    37    18    10   ar
    38     9     1   ar
    39    17    12   ar
    40    26    21    1
    41     8     4   ar
    42    33    28    1
    43    37    38    1
@<TRIPOS>MOLECULE
*****
 38 43 0 0 0
SMALL
GASTEIGER

@<TRIPOS>ATOM
      1 C          62.2249   85.8576   10.7631 C.ar    1  UNL1        0.2389
      2 N          62.8101   87.1440   11.2656 N.ar    1  UNL1       -0.1956
      3 C          62.3295   88.4531   10.7129 C.ar    1  UNL1        0.1424
      4 C          61.2636   88.4757    9.6578 C.ar    1  UNL1        0.0785
      5 S          60.5953   89.6044    8.9303 S.2     1  UNL1       -0.0856
      6 C          59.5969   89.0157    7.9782 C.ar    1  UNL1        0.0251
      7 C          59.6482   87.5230    8.1172 C.ar    1  UNL1        0.0233
      8 C          60.6783   87.1893    9.1553 C.ar    1  UNL1        0.0933
      9 N          61.1589   85.8803    9.7079 N.ar    1  UNL1       -0.2105
     10 C          63.3215   83.4314   10.5268 C.ar    1  UNL1        0.1263
     11 N          63.6512   82.3193   11.4778 N.ar    1  UNL1       -0.2305
     12 C          63.2389   82.7491   12.8545 C.ar    1  UNL1        0.0987
     13 C          63.3202   82.0639   14.1864 C.ar    1  UNL1        0.0206
     14 C          62.8170   82.7565   15.4180 C.ar    1  UNL1        0.0016
     15 C          62.2325   84.1343   15.3179 C.ar    1  UNL1        0.0016
     16 C          62.1512   84.8195   13.9860 C.ar    1  UNL1        0.0192
     17 C          62.6544   84.1269   12.7543 C.ar    1  UNL1        0.0854
     18 N          62.7055   84.5486   11.3157 N.ar    1  UNL1       -0.2632
     19 C          63.5553   84.7171    8.2813 C.3     1  UNL1        0.0084
     20 C          63.5651   83.4271    9.0467 C.3     1  UNL1        0.0644
     21 N          62.9148   89.7395   11.2154 N.pl3   1  UNL1       -0.2876
     22 C          63.3547   90.7937   10.2433 C.3     1  UNL1        0.1243
     23 C          63.9400   92.0801   10.7458 C.3     1  UNL1        0.1636
     24 O          64.0854   92.3124   12.2205 O.3     1  UNL1       -0.3501
     25 C          63.6455   91.2583   13.1927 C.3     1  UNL1        0.1636
     26 C          63.0602   89.9718   12.6902 C.3     1  UNL1        0.1243
     27 C          58.7040   89.7844    7.0499 C.3     1  UNL1        0.1057
     28 N          59.2952   90.5507    5.9039 N.3     1  UNL1       -0.2685
     29 C          60.7312   90.3422    5.5236 C.3     1  UNL1        0.0725
     30 C          61.3224   91.1084    4.3777 C.3     1  UNL1        0.0197
     31 C          60.4778   92.0831    3.6119 C.3     1  UNL1        0.0274
     32 C          59.0418   92.2917    3.9922 C.3     1  UNL1        0.0197
     33 C          58.4505   91.5255    5.1382 C.3     1  UNL1        0.0725
     34 C          61.0689   92.8494    2.4659 C.3     1  UNL1        0.0885
     35 C          59.7161   93.4115    2.1438 C.3     1  UNL1        0.0293
     36 C          62.4219   92.2873    2.7881 C.3     1  UNL1        0.0293
     37 O          61.6602   93.6157    1.3199 O.3     1  UNL1       -0.3867
     38 H          60.9628   94.1235    0.8764 H       1  UNL1        0.2102
@<TRIPOS>BOND
     1    19    20    1
     2    20    10    1
     3    10    11   ar
     4    11    12   ar
     5    12    13   ar
     6    13    14   ar
     7    14    15   ar
     8    15    16   ar
     9    16    17   ar
    10    17    18   ar
    11    18     1    1
    12     1     2   ar
    13     2     3   ar
    14     3    21    1
    15    21    22    1
    16    22    23    1
    17    23    24    1
    18    24    25    1
    19    25    26    1
    20     3     4   ar
    21     4     5   ar
    22     5     6   ar
    23     6    27    1
    24    27    28    1
    25    28    29    1
    26    29    30    1
    27    30    31    1
    28    31    34    1
    29    34    35    1
    30    34    36    1
    31    34    37    1
    32    31    32    1
    33    32    33    1
    34     6     7   ar
    35     7     8   ar
    36     8     9   ar
    37    18    10   ar
    38     9     1   ar
    39    17    12   ar
    40    26    21    1
    41     8     4   ar
    42    33    28    1
    43    37    38    1
@<TRIPOS>MOLECULE
*****
 38 43 0 0 0
SMALL
GASTEIGER

@<TRIPOS>ATOM
      1 C          62.3535   85.9984   11.7501 C.ar    1  UNL1        0.2389
      2 N          62.9816   87.3491   11.9254 N.ar    1  UNL1       -0.1956
      3 C          62.5061   88.5099   11.1029 C.ar    1  UNL1        0.1424
      4 C          61.4024   88.3199   10.1050 C.ar    1  UNL1        0.0785
      5 S          60.7294   89.2702    9.1596 S.2     1  UNL1       -0.0856
      6 C          59.6853   88.5069    8.4000 C.ar    1  UNL1        0.0251
      7 C          59.7130   87.0846    8.8760 C.ar    1  UNL1        0.0233
      8 C          60.7742   86.9691    9.9297 C.ar    1  UNL1        0.0933
      9 N          61.2497   85.8083   10.7522 N.ar    1  UNL1       -0.2105
     10 C          63.2970   84.8989   13.9965 C.ar    1  UNL1        0.1263
     11 N          63.6772   83.5110   14.4195 N.ar    1  UNL1       -0.2305
     12 C          63.4442   82.5919   13.2572 C.ar    1  UNL1        0.0987
     13 C          63.6416   81.1143   13.0907 C.ar    1  UNL1        0.0206
     14 C          63.3149   80.4567   11.7828 C.ar    1  UNL1        0.0016
     15 C          62.7906   81.2766   10.6414 C.ar    1  UNL1        0.0016
     16 C          62.5932   82.7542   10.8078 C.ar    1  UNL1        0.0192
     17 C          62.9200   83.4118   12.1158 C.ar    1  UNL1        0.0854
     18 N          62.8290   84.8376   12.5727 N.ar    1  UNL1       -0.2632
     19 C          64.6469   86.9183   14.9184 C.3     1  UNL1        0.0084
     20 C          63.3716   86.1317   14.8478 C.3     1  UNL1        0.0644
     21 N          63.1343   89.8607   11.2782 N.pl3   1  UNL1       -0.2876
     22 C          63.6433   90.2821   12.6248 C.3     1  UNL1        0.1243
     23 C          64.2715   91.6329   12.8001 C.3     1  UNL1        0.1636
     24 O          64.3907   92.5623   11.6288 O.3     1  UNL1       -0.3501
     25 C          63.8817   92.1409   10.2822 C.3     1  UNL1        0.1636
     26 C          63.2535   90.7901   10.1069 C.3     1  UNL1        0.1243
     27 C          58.7735   89.0672    7.3490 C.3     1  UNL1        0.1057
     28 N          59.3263   89.9505    6.2699 N.3     1  UNL1       -0.2685
     29 C          58.4339   90.9386    5.5791 C.3     1  UNL1        0.0725
     30 C          58.9866   91.8219    4.5001 C.3     1  UNL1        0.0197
     31 C          60.4316   91.7169    4.1118 C.3     1  UNL1        0.0274
     32 C          61.3240   90.7288    4.8026 C.3     1  UNL1        0.0197
     33 C          60.7714   89.8456    5.8816 C.3     1  UNL1        0.0725
     34 C          60.9844   92.6001    3.0327 C.3     1  UNL1        0.0885
     35 C          59.6381   93.2405    2.8671 C.3     1  UNL1        0.0293
     36 C          62.3308   91.9598    3.1983 C.3     1  UNL1        0.0293
     37 O          61.5372   93.4834    1.9536 O.3     1  UNL1       -0.3867
     38 H          60.8356   94.0641    1.6200 H       1  UNL1        0.2102
@<TRIPOS>BOND
     1    19    20    1
     2    20    10    1
     3    10    11   ar
     4    11    12   ar
     5    12    13   ar
     6    13    14   ar
     7    14    15   ar
     8    15    16   ar
     9    16    17   ar
    10    17    18   ar
    11    18     1    1
    12     1     2   ar
    13     2     3   ar
    14     3    21    1
    15    21    22    1
    16    22    23    1
    17    23    24    1
    18    24    25    1
    19    25    26    1
    20     3     4   ar
    21     4     5   ar
    22     5     6   ar
    23     6    27    1
    24    27    28    1
    25    28    29    1
    26    29    30    1
    27    30    31    1
    28    31    34    1
    29    34    35    1
    30    34    36    1
    31    34    37    1
    32    31    32    1
    33    32    33    1
    34     6     7   ar
    35     7     8   ar
    36     8     9   ar
    37    18    10   ar
    38     9     1   ar
    39    17    12   ar
    40    26    21    1
    41     8     4   ar
    42    33    28    1
    43    37    38    1
