@<TRIPOS>MOLECULE
*****
 32 35 0 0 0
SMALL
GASTEIGER

@<TRIPOS>ATOM
      1 C          61.9628   85.9052   10.5823 C.3     1  UNL1        0.0230
      2 C          62.7479   86.2575   11.8109 C.3     1  UNL1        0.0920
      3 C          62.9166   87.6944   12.2068 C.3     1  UNL1        0.1151
      4 N          63.7016   88.0467   13.4354 N.3     1  UNL1       -0.1560
      5 C          64.3180   86.9620   14.2682 C.3     1  UNL1        0.1169
      6 C          64.1494   85.5250   13.8723 C.3     1  UNL1        0.1113
      7 N          63.3643   85.1728   12.6437 N.pl3   1  UNL1       -0.2902
      8 C          63.1956   83.7359   12.2478 C.ar    1  UNL1        0.1594
      9 N          63.7074   83.2584   10.9211 N.ar    1  UNL1       -0.2269
     10 C          63.5386   81.8214   10.5253 C.ar    1  UNL1        0.1043
     11 C          62.8580   80.8619   11.4560 C.ar    1  UNL1        0.0929
     12 C          62.3462   81.3395   12.7827 C.ar    1  UNL1        0.0380
     13 C          62.5150   82.7764   13.1785 C.ar    1  UNL1        0.1715
     14 F          62.0032   83.2539   14.5052 F       1  UNL1       -0.2012
     15 C          62.6893   79.4250   11.0602 C.3     1  UNL1        0.4201
     16 F          62.5205   77.9881   10.6644 F       1  UNL1       -0.1658
     17 F          62.4194   79.0626   12.4906 F       1  UNL1       -0.1658
     18 F          62.9590   79.7873    9.6298 F       1  UNL1       -0.1658
     19 S          63.8704   89.4836   13.8314 S.O2    1  UNL1        0.0443
     20 O          62.6065   89.8328   13.1029 O.2     1  UNL1       -0.1573
     21 O          65.1343   89.1344   14.5598 O.2     1  UNL1       -0.1573
     22 C          64.0392   90.9205   14.2274 C.3     1  UNL1        0.1759
     23 C          64.8585   91.8425   13.3737 C.3     1  UNL1        0.0750
     24 C          64.7589   91.9860   11.8839 C.3     1  UNL1        0.0087
     25 C          65.7601   93.0150   11.4495 C.3     1  UNL1        0.0009
     26 C          66.4784   93.5075   12.6707 C.3     1  UNL1        0.0078
     27 C          66.5780   93.3640   14.1605 C.3     1  UNL1        0.0645
     28 C          65.5768   92.3349   14.5950 C.2     1  UNL1        0.1516
     29 O          65.3362   91.8785   16.0034 O.2     1  UNL1       -0.2960
     30 C          65.9212   92.7828   13.8600 C.3     1  UNL1        0.0082
     31 C          66.7709   93.4279   14.9145 C.3     1  UNL1        0.0005
     32 C          65.8309   92.4617   15.3225 C.3     1  UNL1        0.0005
@<TRIPOS>BOND
     1     2     1    1
     2     2     3    1
     3     3     4    1
     4     4    19    1
     5    19    20    2
     6    19    21    2
     7    19    22    1
     8    23    22    1
     9    23    24    1
    10    24    25    1
    11    26    25    1
    12    26    27    1
    13    27    28    1
    14    28    29    2
    15    26    30    1
    16    30    31    1
    17    30    32    1
    18     4     5    1
    19     5     6    1
    20     6     7    1
    21     7     8    1
    22     8     9   ar
    23     9    10   ar
    24    10    11   ar
    25    11    15    1
    26    15    16    1
    27    15    17    1
    28    15    18    1
    29    11    12   ar
    30    12    13   ar
    31    13    14    1
    32     7     2    1
    33    13     8   ar
    34    28    23    1
    35    30    23    1
@<TRIPOS>MOLECULE
*****
 32 35 0 0 0
SMALL
GASTEIGER

@<TRIPOS>ATOM
      1 C          61.6775   85.7924   10.2881 C.3     1  UNL1        0.0230
      2 C          62.4891   86.2660   11.4573 C.3     1  UNL1        0.0920
      3 C          62.6084   87.7339   11.7420 C.3     1  UNL1        0.1151
      4 N          63.4201   88.2075   12.9111 N.3     1  UNL1       -0.1560
      5 C          64.1124   87.2133   13.7956 C.3     1  UNL1        0.1169
      6 C          63.9931   85.7454   13.5108 C.3     1  UNL1        0.1113
      7 N          63.1815   85.2717   12.3417 N.pl3   1  UNL1       -0.2902
      8 C          63.0621   83.8039   12.0569 C.ar    1  UNL1        0.1594
      9 N          62.3672   82.9041   13.0354 N.ar    1  UNL1       -0.2269
     10 C          62.2479   81.4362   12.7505 C.ar    1  UNL1        0.1043
     11 C          62.8235   80.8681   11.4871 C.ar    1  UNL1        0.0929
     12 C          63.5183   81.7680   10.5086 C.ar    1  UNL1        0.0380
     13 C          63.6376   83.2358   10.7935 C.ar    1  UNL1        0.1715
     14 F          64.3325   84.1356    9.8150 F       1  UNL1       -0.2012
     15 C          62.7041   79.4003   11.2022 C.3     1  UNL1        0.4201
     16 F          62.5849   77.9325   10.9172 F       1  UNL1       -0.1658
     17 F          62.9379   79.6643    9.7441 F       1  UNL1       -0.1658
     18 F          62.4705   79.1363   12.6602 F       1  UNL1       -0.1658
     19 S          63.5394   89.6754   13.1960 S.O2    1  UNL1        0.0443
     20 O          62.4800   89.9601   12.1730 O.2     1  UNL1       -0.1573
     21 O          64.5989   89.3906   14.2189 O.2     1  UNL1       -0.1573
     22 C          63.6589   91.1432   13.4809 C.3     1  UNL1        0.1759
     23 C          64.9498   91.7039   13.9998 C.3     1  UNL1        0.0750
     24 C          65.4495   91.6063   15.4107 C.3     1  UNL1        0.0087
     25 C          66.7762   92.3027   15.4817 C.3     1  UNL1        0.0009
     26 C          67.0963   92.8307   14.1147 C.3     1  UNL1        0.0078
     27 C          66.5966   92.9284   12.7038 C.3     1  UNL1        0.0645
     28 C          65.2698   92.2319   12.6327 C.2     1  UNL1        0.1516
     29 O          64.4137   92.0887   11.4095 O.2     1  UNL1       -0.2960
     30 C          65.9675   92.4607   13.1988 C.3     1  UNL1        0.0082
     31 C          66.5069   93.0780   11.9426 C.3     1  UNL1        0.0005
     32 C          65.2613   92.4242   11.8759 C.3     1  UNL1        0.0005
@<TRIPOS>BOND
     1     2     1    1
     2     2     3    1
     3     3     4    1
     4     4    19    1
     5    19    20    2
     6    19    21    2
     7    19    22    1
     8    23    22    1
     9    23    24    1
    10    24    25    1
    11    26    25    1
    12    26    27    1
    13    27    28    1
    14    28    29    2
    15    26    30    1
    16    30    31    1
    17    30    32    1
    18     4     5    1
    19     5     6    1
    20     6     7    1
    21     7     8    1
    22     8     9   ar
    23     9    10   ar
    24    10    11   ar
    25    11    15    1
    26    15    16    1
    27    15    17    1
    28    15    18    1
    29    11    12   ar
    30    12    13   ar
    31    13    14    1
    32     7     2    1
    33    13     8   ar
    34    28    23    1
    35    30    23    1
@<TRIPOS>MOLECULE
*****
 32 35 0 0 0
SMALL
GASTEIGER

@<TRIPOS>ATOM
      1 C          61.8516   85.9127   10.3135 C.3     1  UNL1        0.0230
      2 C          62.6127   86.3565   11.5275 C.3     1  UNL1        0.0920
      3 C          62.7368   87.8179   11.8420 C.3     1  UNL1        0.1151
      4 N          63.4979   88.2618   13.0560 N.3     1  UNL1       -0.1560
      5 C          64.1349   87.2443   13.9553 C.3     1  UNL1        0.1169
      6 C          64.0109   85.7829   13.6408 C.3     1  UNL1        0.1113
      7 N          63.2498   85.3390   12.4268 N.pl3   1  UNL1       -0.2902
      8 C          63.1257   83.8777   12.1122 C.ar    1  UNL1        0.1594
      9 N          63.6532   83.3425   10.8141 N.ar    1  UNL1       -0.2269
     10 C          63.5291   81.8811   10.4995 C.ar    1  UNL1        0.1043
     11 C          62.8774   80.9549   11.4831 C.ar    1  UNL1        0.0929
     12 C          62.3498   81.4901   12.7812 C.ar    1  UNL1        0.0380
     13 C          62.4739   82.9514   13.0958 C.ar    1  UNL1        0.1715
     14 F          61.9464   83.4866   14.3939 F       1  UNL1       -0.2012
     15 C          62.7532   79.4935   11.1685 C.3     1  UNL1        0.4201
     16 F          62.6291   78.0321   10.8540 F       1  UNL1       -0.1658
     17 F          62.4789   79.2055   12.6149 F       1  UNL1       -0.1658
     18 F          63.0275   79.7815    9.7222 F       1  UNL1       -0.1658
     19 S          63.6220   89.7232   13.3706 S.O2    1  UNL1        0.0443
     20 O          64.7337   89.4219   14.3315 O.2     1  UNL1       -0.1573
     21 O          62.5103   90.0244   12.4097 O.2     1  UNL1       -0.1573
     22 C          63.7460   91.1846   13.6852 C.3     1  UNL1        0.1759
     23 C          65.0668   91.7493   14.1171 C.3     1  UNL1        0.0750
     24 C          65.6423   91.6869   15.5009 C.3     1  UNL1        0.0087
     25 C          66.9752   92.3747   15.4800 C.3     1  UNL1        0.0009
     26 C          67.2235   92.8621   14.0833 C.3     1  UNL1        0.0078
     27 C          66.6480   92.9246   12.6995 C.3     1  UNL1        0.0645
     28 C          65.3151   92.2368   12.7204 C.2     1  UNL1        0.1516
     29 O          64.3925   92.0664   11.5501 O.2     1  UNL1       -0.2960
     30 C          66.0440   92.4757   13.2410 C.3     1  UNL1        0.0082
     31 C          66.5178   93.0537   11.9405 C.3     1  UNL1        0.0005
     32 C          65.2664   92.4080   11.9601 C.3     1  UNL1        0.0005
@<TRIPOS>BOND
     1     2     1    1
     2     2     3    1
     3     3     4    1
     4     4    19    1
     5    19    20    2
     6    19    21    2
     7    19    22    1
     8    23    22    1
     9    23    24    1
    10    24    25    1
    11    26    25    1
    12    26    27    1
    13    27    28    1
    14    28    29    2
    15    26    30    1
    16    30    31    1
    17    30    32    1
    18     4     5    1
    19     5     6    1
    20     6     7    1
    21     7     8    1
    22     8     9   ar
    23     9    10   ar
    24    10    11   ar
    25    11    15    1
    26    15    16    1
    27    15    17    1
    28    15    18    1
    29    11    12   ar
    30    12    13   ar
    31    13    14    1
    32     7     2    1
    33    13     8   ar
    34    28    23    1
    35    30    23    1
@<TRIPOS>MOLECULE
*****
 32 35 0 0 0
SMALL
GASTEIGER

@<TRIPOS>ATOM
      1 C          64.9607   88.8204   14.9199 C.3     1  UNL1        0.0230
      2 C          64.4028   89.4159   13.6613 C.3     1  UNL1        0.0920
      3 C          63.3603   88.6739   12.8787 C.3     1  UNL1        0.1151
      4 N          62.8023   89.2694   11.6201 N.3     1  UNL1       -0.1560
      5 C          63.2868   90.6068   11.1441 C.3     1  UNL1        0.1169
      6 C          64.3294   91.3488   11.9268 C.3     1  UNL1        0.1113
      7 N          64.8873   90.7533   13.1854 N.pl3   1  UNL1       -0.2902
      8 C          65.9298   91.4952   13.9681 C.ar    1  UNL1        0.1594
      9 N          67.2827   91.7424   13.3693 N.ar    1  UNL1       -0.2269
     10 C          68.3252   92.4843   14.1521 C.ar    1  UNL1        0.1043
     11 C          68.0148   92.9791   15.5338 C.ar    1  UNL1        0.0929
     12 C          66.6620   92.7319   16.1326 C.ar    1  UNL1        0.0380
     13 C          65.6195   91.9900   15.3498 C.ar    1  UNL1        0.1715
     14 F          64.2666   91.7428   15.9486 F       1  UNL1       -0.2012
     15 C          69.0573   93.7210   16.3166 C.3     1  UNL1        0.4201
     16 F          70.0998   94.4628   17.0994 F       1  UNL1       -0.1658
     17 F          69.6207   92.4180   16.8013 F       1  UNL1       -0.1658
     18 F          68.4939   95.0240   15.8320 F       1  UNL1       -0.1658
     19 S          61.7597   88.5275   10.8373 S.O2    1  UNL1        0.0443
     20 O          61.8031   87.4108   11.8378 O.2     1  UNL1       -0.1573
     21 O          61.7164   89.6442    9.8368 O.2     1  UNL1       -0.1573
     22 C          60.7172   87.7857   10.0544 C.3     1  UNL1        0.1759
     23 C          61.1294   86.7648    9.0356 C.3     1  UNL1        0.0750
     24 C          62.4625   86.0810    8.9622 C.3     1  UNL1        0.0087
     25 C          62.4379   85.1421    7.7926 C.3     1  UNL1        0.0009
     26 C          61.0897   85.2457    7.1432 C.3     1  UNL1        0.0078
     27 C          59.7567   85.9296    7.2167 C.3     1  UNL1        0.0645
     28 C          59.7812   86.8685    8.3863 C.2     1  UNL1        0.1516
     29 O          58.6553   87.7552    8.8288 O.2     1  UNL1       -0.2960
     30 C          60.2810   86.2486    7.9115 C.3     1  UNL1        0.0082
     31 C          59.0249   86.1734    7.0951 C.3     1  UNL1        0.0005
     32 C          59.0479   87.0549    8.1932 C.3     1  UNL1        0.0005
@<TRIPOS>BOND
     1     2     1    1
     2     2     3    1
     3     3     4    1
     4     4    19    1
     5    19    20    2
     6    19    21    2
     7    19    22    1
     8    23    22    1
     9    23    24    1
    10    24    25    1
    11    26    25    1
    12    26    27    1
    13    27    28    1
    14    28    29    2
    15    26    30    1
    16    30    31    1
    17    30    32    1
    18     4     5    1
    19     5     6    1
    20     6     7    1
    21     7     8    1
    22     8     9   ar
    23     9    10   ar
    24    10    11   ar
    25    11    15    1
    26    15    16    1
    27    15    17    1
    28    15    18    1
    29    11    12   ar
    30    12    13   ar
    31    13    14    1
    32     7     2    1
    33    13     8   ar
    34    28    23    1
    35    30    23    1
