@<TRIPOS>MOLECULE
*****
 35 38 0 0 0
SMALL
GASTEIGER

@<TRIPOS>ATOM
      1 C          60.9950   88.1848   10.3813 C.ar    1  UNL1        0.1040
      2 C          60.8845   86.9246    9.5754 C.ar    1  UNL1        0.1091
      3 N          61.7059   85.7246    9.9433 N.ar    1  UNL1       -0.2120
      4 C          62.6379   85.7849   11.1170 C.ar    1  UNL1        0.2181
      5 N          62.7484   87.0452   11.9229 N.ar    1  UNL1       -0.1986
      6 C          61.9269   88.2451   11.5551 C.ar    1  UNL1        0.1409
      7 N          60.0240   89.7786    8.5738 N.am    1  UNL1       -0.3252
      8 C          60.1735   89.3848   10.0134 C.2     1  UNL1        0.2470
      9 O          59.5016   90.1909   11.0851 O.2     1  UNL1       -0.2702
     10 H          59.4849   90.5662    8.3324 H       1  UNL1        0.1453
     11 H          60.4650   89.2495    7.8704 H       1  UNL1        0.1453
     12 N          63.4593   84.5850   11.4849 N.pl3   1  UNL1       -0.3033
     13 H          64.3544   84.4624   11.0936 H       1  UNL1        0.1496
     14 C          62.9171   83.5718   12.4490 C.3     1  UNL1        0.0858
     15 C          62.5429   82.2019   11.9658 C.3     1  UNL1        0.0209
     16 C          62.0007   81.1887   12.9298 C.3     1  UNL1        0.0018
     17 C          61.8326   81.5454   14.3771 C.3     1  UNL1        0.0015
     18 C          62.2068   82.9152   14.8603 C.3     1  UNL1        0.0172
     19 C          62.7491   83.9284   13.8962 C.3     1  UNL1        0.0690
     20 N          63.1233   85.2983   14.3794 N.3     1  UNL1       -0.3209
     21 H          62.9452   85.3657   15.3815 H       1  UNL1        0.1189
     22 H          62.5659   85.9964   13.8873 H       1  UNL1        0.1189
     23 N          62.0375   89.5054   12.3610 N.pl3   1  UNL1       -0.2977
     24 H          61.3935   89.6857   13.0836 H       1  UNL1        0.1536
     25 C          63.1292   90.4909   12.0662 C.ar    1  UNL1        0.0509
     26 C          63.2570   91.0799   10.6925 C.ar    1  UNL1        0.0147
     27 C          64.3487   92.0654   10.3977 C.ar    1  UNL1        0.0029
     28 C          65.3126   92.4619   11.4764 C.ar    1  UNL1        0.0210
     29 C          65.1848   91.8730   12.8500 C.ar    1  UNL1        0.1041
     30 C          64.0931   90.8875   13.1449 C.ar    1  UNL1        0.0355
     31 N          66.1486   92.2695   13.9288 N.ar    1  UNL1       -0.1478
     32 N          65.8074   92.5183   15.3681 N.ar    1  UNL1       -0.1447
     33 C          67.0708   92.8895   16.0865 C.ar    1  UNL1        0.1446
     34 C          68.1929   92.8701   15.0911 C.ar    1  UNL1        0.1446
     35 N          67.6229   92.4869   13.7576 N.ar    1  UNL1       -0.1447
@<TRIPOS>BOND
     1     7     8   am
     2     8     9    2
     3     8     1    1
     4     1     2   ar
     5     2     3   ar
     6     3     4   ar
     7     4    12    1
     8    14    12    1
     9    14    15    1
    10    15    16    1
    11    16    17    1
    12    17    18    1
    13    18    19    1
    14    19    20    1
    15     4     5   ar
    16     5     6   ar
    17     6    23    1
    18    23    25    1
    19    25    26   ar
    20    26    27   ar
    21    27    28   ar
    22    28    29   ar
    23    29    31    1
    24    31    32   ar
    25    32    33   ar
    26    33    34   ar
    27    34    35   ar
    28    29    30   ar
    29     6     1   ar
    30    30    25   ar
    31    19    14    1
    32    35    31   ar
    33     7    10    1
    34     7    11    1
    35    12    13    1
    36    20    21    1
    37    20    22    1
    38    23    24    1
@<TRIPOS>MOLECULE
*****
 35 38 0 0 0
SMALL
GASTEIGER

@<TRIPOS>ATOM
      1 C          61.0493   88.7111   10.8132 C.ar    1  UNL1        0.1040
      2 C          60.8211   87.2468   10.5820 C.ar    1  UNL1        0.1091
      3 N          61.6472   86.2336   11.3175 N.ar    1  UNL1       -0.2120
      4 C          62.7016   86.6848   12.2843 C.ar    1  UNL1        0.2181
      5 N          62.9298   88.1492   12.5155 N.ar    1  UNL1       -0.1986
      6 C          62.1037   89.1624   11.7800 C.ar    1  UNL1        0.1409
      7 N          60.1271   89.6703    8.5817 N.am    1  UNL1       -0.3252
      8 C          60.2232   89.7243   10.0777 C.2     1  UNL1        0.2470
      9 O          59.4932   90.7915   10.8380 O.2     1  UNL1       -0.2702
     10 H          59.5848   90.3352    8.0990 H       1  UNL1        0.1453
     11 H          60.6062   88.9698    8.0827 H       1  UNL1        0.1453
     12 N          63.5277   85.6717   13.0198 N.pl3   1  UNL1       -0.3033
     13 H          64.3614   85.9464   13.4657 H       1  UNL1        0.1496
     14 C          63.0837   84.2400   13.0760 C.3     1  UNL1        0.0858
     15 C          63.2828   83.3459   11.8882 C.3     1  UNL1        0.0209
     16 C          62.8388   81.9142   11.9443 C.3     1  UNL1        0.0018
     17 C          62.1957   81.3767   13.1883 C.3     1  UNL1        0.0015
     18 C          61.9967   82.2707   14.3761 C.3     1  UNL1        0.0172
     19 C          62.4407   83.7025   14.3200 C.3     1  UNL1        0.0690
     20 N          62.2416   84.5965   15.5078 N.3     1  UNL1       -0.3209
     21 H          61.7942   84.0703   16.2583 H       1  UNL1        0.1189
     22 H          61.6494   85.3843   15.2450 H       1  UNL1        0.1189
     23 N          62.3319   90.6268   12.0113 N.pl3   1  UNL1       -0.2977
     24 H          61.5855   91.2620   11.9184 H       1  UNL1        0.1536
     25 C          63.6974   91.1233   12.3840 C.ar    1  UNL1        0.0509
     26 C          64.2122   90.9262   13.7790 C.ar    1  UNL1        0.0147
     27 C          65.5777   91.4228   14.1517 C.ar    1  UNL1        0.0029
     28 C          66.4284   92.1165   13.1293 C.ar    1  UNL1        0.0210
     29 C          65.9135   92.3136   11.7343 C.ar    1  UNL1        0.1041
     30 C          64.5481   91.8170   11.3616 C.ar    1  UNL1        0.0355
     31 N          66.7642   93.0072   10.7120 N.ar    1  UNL1       -0.1478
     32 N          66.7048   94.4634   10.3570 N.ar    1  UNL1       -0.1447
     33 C          67.7275   94.7226    9.2908 C.ar    1  UNL1        0.1446
     34 C          68.4189   93.4266    8.9867 C.ar    1  UNL1        0.1446
     35 N          67.8235   92.3665    9.8650 N.ar    1  UNL1       -0.1447
@<TRIPOS>BOND
     1     7     8   am
     2     8     9    2
     3     8     1    1
     4     1     2   ar
     5     2     3   ar
     6     3     4   ar
     7     4    12    1
     8    14    12    1
     9    14    15    1
    10    15    16    1
    11    16    17    1
    12    17    18    1
    13    18    19    1
    14    19    20    1
    15     4     5   ar
    16     5     6   ar
    17     6    23    1
    18    23    25    1
    19    25    26   ar
    20    26    27   ar
    21    27    28   ar
    22    28    29   ar
    23    29    31    1
    24    31    32   ar
    25    32    33   ar
    26    33    34   ar
    27    34    35   ar
    28    29    30   ar
    29     6     1   ar
    30    30    25   ar
    31    19    14    1
    32    35    31   ar
    33     7    10    1
    34     7    11    1
    35    12    13    1
    36    20    21    1
    37    20    22    1
    38    23    24    1
@<TRIPOS>MOLECULE
*****
 35 38 0 0 0
SMALL
GASTEIGER

@<TRIPOS>ATOM
      1 C          63.2115   87.6942   16.4775 C.ar    1  UNL1        0.1040
      2 C          62.7920   89.0913   16.8267 C.ar    1  UNL1        0.1091
      3 N          63.3331   90.2536   16.0480 N.ar    1  UNL1       -0.2120
      4 C          64.2937   90.0187   14.9202 C.ar    1  UNL1        0.2181
      5 N          64.7132   88.6216   14.5710 N.ar    1  UNL1       -0.1986
      6 C          64.1721   87.4593   15.3497 C.ar    1  UNL1        0.1409
      7 N          62.7651   86.5228   18.7531 N.am    1  UNL1       -0.3252
      8 C          62.6704   86.5319   17.2562 C.2     1  UNL1        0.2470
      9 O          62.0345   85.3788   16.5379 O.2     1  UNL1       -0.2702
     10 H          62.4100   85.7599   19.2642 H       1  UNL1        0.1453
     11 H          63.1825   87.2796   19.2246 H       1  UNL1        0.1453
     12 N          64.8348   91.1810   14.1415 N.pl3   1  UNL1       -0.3033
     13 H          64.3258   91.5436   13.3808 H       1  UNL1        0.1496
     14 C          66.1514   91.7908   14.5219 C.3     1  UNL1        0.0858
     15 C          67.3514   91.5925   13.6439 C.3     1  UNL1        0.0209
     16 C          68.6679   92.2024   14.0243 C.3     1  UNL1        0.0018
     17 C          68.7846   93.0105   15.2826 C.3     1  UNL1        0.0015
     18 C          67.5847   93.2088   16.1605 C.3     1  UNL1        0.0172
     19 C          66.2680   92.5990   15.7802 C.3     1  UNL1        0.0690
     20 N          65.0681   92.7973   16.6581 N.3     1  UNL1       -0.3209
     21 H          65.3266   93.3671   17.4636 H       1  UNL1        0.1189
     22 H          64.7274   91.8907   16.9782 H       1  UNL1        0.1189
     23 N          64.5916   86.0621   15.0005 N.pl3   1  UNL1       -0.2977
     24 H          65.2639   85.5981   15.5501 H       1  UNL1        0.1536
     25 C          63.9869   85.3719   13.8139 C.ar    1  UNL1        0.0509
     26 C          64.3049   83.9315   13.5417 C.ar    1  UNL1        0.0147
     27 C          63.7001   83.2413   12.3551 C.ar    1  UNL1        0.0029
     28 C          62.7775   83.9915   11.4408 C.ar    1  UNL1        0.0210
     29 C          62.4595   85.4319   11.7131 C.ar    1  UNL1        0.1041
     30 C          63.0642   86.1221   12.8996 C.ar    1  UNL1        0.0355
     31 N          61.5369   86.1821   10.7988 N.ar    1  UNL1       -0.1478
     32 N          60.6756   87.3495   11.1796 N.ar    1  UNL1       -0.1447
     33 C          59.9199   87.7856    9.9594 C.ar    1  UNL1        0.1446
     34 C          60.3143   86.8875    8.8244 C.ar    1  UNL1        0.1446
     35 N          61.3137   85.8965    9.3433 N.ar    1  UNL1       -0.1447
@<TRIPOS>BOND
     1     7     8   am
     2     8     9    2
     3     8     1    1
     4     1     2   ar
     5     2     3   ar
     6     3     4   ar
     7     4    12    1
     8    14    12    1
     9    14    15    1
    10    15    16    1
    11    16    17    1
    12    17    18    1
    13    18    19    1
    14    19    20    1
    15     4     5   ar
    16     5     6   ar
    17     6    23    1
    18    23    25    1
    19    25    26   ar
    20    26    27   ar
    21    27    28   ar
    22    28    29   ar
    23    29    31    1
    24    31    32   ar
    25    32    33   ar
    26    33    34   ar
    27    34    35   ar
    28    29    30   ar
    29     6     1   ar
    30    30    25   ar
    31    19    14    1
    32    35    31   ar
    33     7    10    1
    34     7    11    1
    35    12    13    1
    36    20    21    1
    37    20    22    1
    38    23    24    1
@<TRIPOS>MOLECULE
*****
 35 38 0 0 0
SMALL
GASTEIGER

@<TRIPOS>ATOM
      1 C          64.8721   91.2221   14.2272 C.ar    1  UNL1        0.1040
      2 C          66.3219   91.5168   14.4743 C.ar    1  UNL1        0.1091
      3 N          67.1786   92.0500   13.3645 N.ar    1  UNL1       -0.2120
      4 C          66.5855   92.2885   12.0075 C.ar    1  UNL1        0.2181
      5 N          65.1356   91.9938   11.7605 N.ar    1  UNL1       -0.1986
      6 C          64.2789   91.4607   12.8703 C.ar    1  UNL1        0.1409
      7 N          63.6568   89.2330   15.3745 N.am    1  UNL1       -0.3252
      8 C          64.0153   90.6890   15.3371 C.2     1  UNL1        0.2470
      9 O          63.5172   91.6118   16.4095 O.2     1  UNL1       -0.2702
     10 H          63.0945   88.8831   16.1029 H       1  UNL1        0.1453
     11 H          63.9838   88.6273   14.6706 H       1  UNL1        0.1453
     12 N          67.4422   92.8217   10.8977 N.pl3   1  UNL1       -0.3033
     13 H          68.2104   92.2980   10.5739 H       1  UNL1        0.1496
     14 C          67.1285   94.1526   10.2812 C.3     1  UNL1        0.0858
     15 C          67.4939   94.4218    8.8515 C.3     1  UNL1        0.0209
     16 C          67.1801   95.7528    8.2350 C.3     1  UNL1        0.0018
     17 C          66.5010   96.8146    9.0483 C.3     1  UNL1        0.0015
     18 C          66.1356   96.5454   10.4779 C.3     1  UNL1        0.0172
     19 C          66.4493   95.2144   11.0944 C.3     1  UNL1        0.0690
     20 N          66.0839   94.9453   12.5241 N.3     1  UNL1       -0.3209
     21 H          65.6335   95.7699   12.9210 H       1  UNL1        0.1189
     22 H          66.9272   94.7294   13.0557 H       1  UNL1        0.1189
     23 N          62.8290   91.1660   12.6232 N.pl3   1  UNL1       -0.2977
     24 H          62.1347   91.7081   13.0628 H       1  UNL1        0.1536
     25 C          62.4371   90.0455   11.7063 C.ar    1  UNL1        0.0509
     26 C          61.7439   90.3446   10.4101 C.ar    1  UNL1        0.0147
     27 C          61.3519   89.2240    9.4932 C.ar    1  UNL1        0.0029
     28 C          61.6532   87.8044    9.8724 C.ar    1  UNL1        0.0210
     29 C          62.3464   87.5053   11.1686 C.ar    1  UNL1        0.1041
     30 C          62.7383   88.6258   12.0855 C.ar    1  UNL1        0.0355
     31 N          62.6476   86.0857   11.5478 N.ar    1  UNL1       -0.1478
     32 N          62.6648   84.9092   10.6174 N.ar    1  UNL1       -0.1447
     33 C          63.0124   83.6897   11.4186 C.ar    1  UNL1        0.1446
     34 C          63.2100   84.1124   12.8442 C.ar    1  UNL1        0.1446
     35 N          62.9846   85.5932   12.9240 N.ar    1  UNL1       -0.1447
@<TRIPOS>BOND
     1     7     8   am
     2     8     9    2
     3     8     1    1
     4     1     2   ar
     5     2     3   ar
     6     3     4   ar
     7     4    12    1
     8    14    12    1
     9    14    15    1
    10    15    16    1
    11    16    17    1
    12    17    18    1
    13    18    19    1
    14    19    20    1
    15     4     5   ar
    16     5     6   ar
    17     6    23    1
    18    23    25    1
    19    25    26   ar
    20    26    27   ar
    21    27    28   ar
    22    28    29   ar
    23    29    31    1
    24    31    32   ar
    25    32    33   ar
    26    33    34   ar
    27    34    35   ar
    28    29    30   ar
    29     6     1   ar
    30    30    25   ar
    31    19    14    1
    32    35    31   ar
    33     7    10    1
    34     7    11    1
    35    12    13    1
    36    20    21    1
    37    20    22    1
    38    23    24    1
@<TRIPOS>MOLECULE
*****
 35 38 0 0 0
SMALL
GASTEIGER

@<TRIPOS>ATOM
      1 C          61.1422   88.4778   10.5298 C.ar    1  UNL1        0.1040
      2 C          61.0170   87.0223   10.1895 C.ar    1  UNL1        0.1091
      3 N          61.8332   86.0057   10.9314 N.ar    1  UNL1       -0.2120
      4 C          62.7745   86.4446   12.0136 C.ar    1  UNL1        0.2181
      5 N          62.8997   87.9001   12.3539 N.ar    1  UNL1       -0.1986
      6 C          62.0835   88.9167   11.6120 C.ar    1  UNL1        0.1409
      7 N          60.0766   89.3282    8.3181 N.am    1  UNL1       -0.3252
      8 C          60.3260   89.4944    9.7879 C.2     1  UNL1        0.2470
      9 O          59.7592   90.6772   10.5157 O.2     1  UNL1       -0.2702
     10 H          59.5410   89.9955    7.8312 H       1  UNL1        0.1453
     11 H          60.4486   88.5520    7.8404 H       1  UNL1        0.1453
     12 N          63.5907   85.4280   12.7555 N.pl3   1  UNL1       -0.3033
     13 H          64.4587   85.6823   13.1442 H       1  UNL1        0.1496
     14 C          63.0843   84.0241   12.9051 C.3     1  UNL1        0.0858
     15 C          62.4605   83.5855   14.1969 C.3     1  UNL1        0.0209
     16 C          61.9541   82.1815   14.3466 C.3     1  UNL1        0.0018
     17 C          62.0715   81.2161   13.2046 C.3     1  UNL1        0.0015
     18 C          62.6952   81.6547   11.9128 C.3     1  UNL1        0.0172
     19 C          63.2017   83.0587   11.7631 C.3     1  UNL1        0.0690
     20 N          63.8254   83.4973   10.4714 N.3     1  UNL1       -0.3209
     21 H          63.8228   82.7197    9.8113 H       1  UNL1        0.1189
     22 H          64.7858   83.7955   10.6416 H       1  UNL1        0.1189
     23 N          62.2087   90.3723   11.9523 N.pl3   1  UNL1       -0.2977
     24 H          61.4195   90.9588   11.9040 H       1  UNL1        0.1536
     25 C          63.5364   90.9342   12.3663 C.ar    1  UNL1        0.0509
     26 C          64.0492   90.7005   13.7564 C.ar    1  UNL1        0.0147
     27 C          65.3770   91.2624   14.1704 C.ar    1  UNL1        0.0029
     28 C          66.1919   92.0580   13.1942 C.ar    1  UNL1        0.0210
     29 C          65.6791   92.2917   11.8041 C.ar    1  UNL1        0.1041
     30 C          64.3514   91.7298   11.3901 C.ar    1  UNL1        0.0355
     31 N          66.4941   93.0873   10.8280 N.ar    1  UNL1       -0.1478
     32 N          67.6206   92.5640    9.9871 N.ar    1  UNL1       -0.1447
     33 C          68.1483   93.6991    9.1607 C.ar    1  UNL1        0.1446
     34 C          67.3479   94.9241    9.4909 C.ar    1  UNL1        0.1446
     35 N          66.3256   94.5459   10.5213 N.ar    1  UNL1       -0.1447
@<TRIPOS>BOND
     1     7     8   am
     2     8     9    2
     3     8     1    1
     4     1     2   ar
     5     2     3   ar
     6     3     4   ar
     7     4    12    1
     8    14    12    1
     9    14    15    1
    10    15    16    1
    11    16    17    1
    12    17    18    1
    13    18    19    1
    14    19    20    1
    15     4     5   ar
    16     5     6   ar
    17     6    23    1
    18    23    25    1
    19    25    26   ar
    20    26    27   ar
    21    27    28   ar
    22    28    29   ar
    23    29    31    1
    24    31    32   ar
    25    32    33   ar
    26    33    34   ar
    27    34    35   ar
    28    29    30   ar
    29     6     1   ar
    30    30    25   ar
    31    19    14    1
    32    35    31   ar
    33     7    10    1
    34     7    11    1
    35    12    13    1
    36    20    21    1
    37    20    22    1
    38    23    24    1
@<TRIPOS>MOLECULE
*****
 35 38 0 0 0
SMALL
GASTEIGER

@<TRIPOS>ATOM
      1 C          60.5484   87.2843    8.9299 C.ar    1  UNL1        0.1040
      2 C          59.8210   88.5663    9.2082 C.ar    1  UNL1        0.1091
      3 N          60.2745   89.4587   10.3252 N.ar    1  UNL1       -0.2120
      4 C          61.4554   89.0692   11.1640 C.ar    1  UNL1        0.2181
      5 N          62.1828   87.7873   10.8858 N.ar    1  UNL1       -0.1986
      6 C          61.7293   86.8948    9.7687 C.ar    1  UNL1        0.1409
      7 N          58.6416   86.3280    7.4468 N.am    1  UNL1       -0.3252
      8 C          60.0948   86.3919    7.8128 C.2     1  UNL1        0.2470
      9 O          61.0945   85.5633    7.0618 O.2     1  UNL1       -0.2702
     10 H          58.3439   85.7423    6.7136 H       1  UNL1        0.1453
     11 H          57.9855   86.8718    7.9397 H       1  UNL1        0.1453
     12 N          61.9090   89.9617   12.2811 N.pl3   1  UNL1       -0.3033
     13 H          61.4057   89.9861   13.1269 H       1  UNL1        0.1496
     14 C          63.1292   90.8169   12.1095 C.3     1  UNL1        0.0858
     15 C          63.5774   91.2171   10.7351 C.3     1  UNL1        0.0209
     16 C          64.7977   92.0723   10.5635 C.3     1  UNL1        0.0018
     17 C          65.5698   92.5274   11.7663 C.3     1  UNL1        0.0015
     18 C          65.1217   92.1272   13.1407 C.3     1  UNL1        0.0172
     19 C          63.9014   91.2719   13.3123 C.3     1  UNL1        0.0690
     20 N          63.4533   90.8718   14.6867 N.3     1  UNL1       -0.3209
     21 H          64.0892   91.2660   15.3799 H       1  UNL1        0.1189
     22 H          63.4560   89.8546   14.7625 H       1  UNL1        0.1189
     23 N          62.4568   85.6128    9.4904 N.pl3   1  UNL1       -0.2977
     24 H          62.5567   85.2946    8.5642 H       1  UNL1        0.1536
     25 C          63.0319   84.8157   10.6235 C.ar    1  UNL1        0.0509
     26 C          63.7990   83.5578   10.3420 C.ar    1  UNL1        0.0147
     27 C          64.3741   82.7606   11.4751 C.ar    1  UNL1        0.0029
     28 C          64.1822   83.2215   12.8896 C.ar    1  UNL1        0.0210
     29 C          63.4151   84.4794   13.1710 C.ar    1  UNL1        0.1041
     30 C          62.8400   85.2765   12.0380 C.ar    1  UNL1        0.0355
     31 N          63.2232   84.9402   14.5855 N.ar    1  UNL1       -0.1478
     32 N          64.2091   85.7261   15.3982 N.ar    1  UNL1       -0.1447
     33 C          63.6069   85.9677   16.7506 C.ar    1  UNL1        0.1446
     34 C          62.2489   85.3311   16.7738 C.ar    1  UNL1        0.1446
     35 N          62.0118   84.6961   15.4357 N.ar    1  UNL1       -0.1447
@<TRIPOS>BOND
     1     7     8   am
     2     8     9    2
     3     8     1    1
     4     1     2   ar
     5     2     3   ar
     6     3     4   ar
     7     4    12    1
     8    14    12    1
     9    14    15    1
    10    15    16    1
    11    16    17    1
    12    17    18    1
    13    18    19    1
    14    19    20    1
    15     4     5   ar
    16     5     6   ar
    17     6    23    1
    18    23    25    1
    19    25    26   ar
    20    26    27   ar
    21    27    28   ar
    22    28    29   ar
    23    29    31    1
    24    31    32   ar
    25    32    33   ar
    26    33    34   ar
    27    34    35   ar
    28    29    30   ar
    29     6     1   ar
    30    30    25   ar
    31    19    14    1
    32    35    31   ar
    33     7    10    1
    34     7    11    1
    35    12    13    1
    36    20    21    1
    37    20    22    1
    38    23    24    1
@<TRIPOS>MOLECULE
*****
 35 38 0 0 0
SMALL
GASTEIGER

@<TRIPOS>ATOM
      1 C          64.3032   90.0102   14.2787 C.ar    1  UNL1        0.1040
      2 C          65.6315   90.6479   14.5599 C.ar    1  UNL1        0.1091
      3 N          66.0654   91.8527   13.7788 N.ar    1  UNL1       -0.2120
      4 C          65.1711   92.4197   12.7164 C.ar    1  UNL1        0.2181
      5 N          63.8429   91.7820   12.4352 N.ar    1  UNL1       -0.1986
      6 C          63.4090   90.5772   13.2164 C.ar    1  UNL1        0.1409
      7 N          63.0624   88.9747   16.3129 N.am    1  UNL1       -0.3252
      8 C          63.8693   88.8054   15.0599 C.2     1  UNL1        0.2470
      9 O          64.2423   87.4313   14.5881 O.2     1  UNL1       -0.2702
     10 H          62.7776   88.1840   16.8256 H       1  UNL1        0.1453
     11 H          62.8175   89.8766   16.6227 H       1  UNL1        0.1453
     12 N          65.6051   93.6245   11.9352 N.pl3   1  UNL1       -0.3033
     13 H          65.2667   94.5166   12.1779 H       1  UNL1        0.1496
     14 C          66.5545   93.4700   10.7843 C.3     1  UNL1        0.0858
     15 C          67.4560   92.2733   10.7110 C.3     1  UNL1        0.0209
     16 C          68.4054   92.1188    9.5601 C.3     1  UNL1        0.0018
     17 C          68.4535   93.1611    8.4825 C.3     1  UNL1        0.0015
     18 C          67.5522   94.3578    8.5557 C.3     1  UNL1        0.0172
     19 C          66.6026   94.5123    9.7066 C.3     1  UNL1        0.0690
     20 N          65.7013   95.7090    9.7799 N.3     1  UNL1       -0.3209
     21 H          65.8662   96.3089    8.9716 H       1  UNL1        0.1189
     22 H          65.8962   96.2296   10.6351 H       1  UNL1        0.1189
     23 N          62.0807   89.9395   12.9351 N.pl3   1  UNL1       -0.2977
     24 H          61.3189   90.1030   13.5369 H       1  UNL1        0.1536
     25 C          61.9131   89.0527   11.7370 C.ar    1  UNL1        0.0509
     26 C          61.2465   89.5799   10.5010 C.ar    1  UNL1        0.0147
     27 C          61.0790   88.6930    9.3029 C.ar    1  UNL1        0.0029
     28 C          61.5781   87.2790    9.3408 C.ar    1  UNL1        0.0210
     29 C          62.2447   86.7518   10.5768 C.ar    1  UNL1        0.1041
     30 C          62.4122   87.6386   11.7749 C.ar    1  UNL1        0.0355
     31 N          62.7437   85.3378   10.6147 N.ar    1  UNL1       -0.1478
     32 N          63.4277   84.6139    9.4931 N.ar    1  UNL1       -0.1447
     33 C          63.7531   83.2281    9.9660 C.ar    1  UNL1        0.1446
     34 C          63.2702   83.0955   11.3800 C.ar    1  UNL1        0.1446
     35 N          62.6464   84.3994   11.7809 N.ar    1  UNL1       -0.1447
@<TRIPOS>BOND
     1     7     8   am
     2     8     9    2
     3     8     1    1
     4     1     2   ar
     5     2     3   ar
     6     3     4   ar
     7     4    12    1
     8    14    12    1
     9    14    15    1
    10    15    16    1
    11    16    17    1
    12    17    18    1
    13    18    19    1
    14    19    20    1
    15     4     5   ar
    16     5     6   ar
    17     6    23    1
    18    23    25    1
    19    25    26   ar
    20    26    27   ar
    21    27    28   ar
    22    28    29   ar
    23    29    31    1
    24    31    32   ar
    25    32    33   ar
    26    33    34   ar
    27    34    35   ar
    28    29    30   ar
    29     6     1   ar
    30    30    25   ar
    31    19    14    1
    32    35    31   ar
    33     7    10    1
    34     7    11    1
    35    12    13    1
    36    20    21    1
    37    20    22    1
    38    23    24    1
@<TRIPOS>MOLECULE
*****
 35 38 0 0 0
SMALL
GASTEIGER

@<TRIPOS>ATOM
      1 C          63.2105   87.6342   16.5805 C.ar    1  UNL1        0.1040
      2 C          62.8099   89.0312   16.9518 C.ar    1  UNL1        0.1091
      3 N          63.3202   90.1948   16.1544 N.ar    1  UNL1       -0.2120
      4 C          64.2312   89.9613   14.9859 C.ar    1  UNL1        0.2181
      5 N          64.6318   88.5643   14.6147 N.ar    1  UNL1       -0.1986
      6 C          64.1215   87.4008   15.4120 C.ar    1  UNL1        0.1409
      7 N          62.7723   86.4987   18.8758 N.am    1  UNL1       -0.3252
      8 C          62.7002   86.4707   17.3779 C.2     1  UNL1        0.2470
      9 O          62.1176   85.2792   16.6772 O.2     1  UNL1       -0.2702
     10 H          62.4374   85.7350   19.3991 H       1  UNL1        0.1453
     11 H          63.1547   87.2807   19.3357 H       1  UNL1        0.1453
     12 N          64.7415   91.1248   14.1886 N.pl3   1  UNL1       -0.3033
     13 H          65.3554   91.7738   14.6024 H       1  UNL1        0.1496
     14 C          64.3165   91.2997   12.7607 C.3     1  UNL1        0.0858
     15 C          65.1547   92.1177   11.8235 C.3     1  UNL1        0.0209
     16 C          64.7298   92.2926   10.3956 C.3     1  UNL1        0.0018
     17 C          63.4666   91.6494    9.9050 C.3     1  UNL1        0.0015
     18 C          62.6284   90.8314   10.8421 C.3     1  UNL1        0.0172
     19 C          63.0534   90.6565   12.2700 C.3     1  UNL1        0.0690
     20 N          62.2152   89.8385   13.2072 N.3     1  UNL1       -0.3209
     21 H          61.4004   89.4798   12.7095 H       1  UNL1        0.1189
     22 H          61.9085   90.4216   13.9859 H       1  UNL1        0.1189
     23 N          64.5221   86.0037   15.0407 N.pl3   1  UNL1       -0.2977
     24 H          65.1529   85.5051   15.6088 H       1  UNL1        0.1536
     25 C          63.9618   85.3665   13.8038 C.ar    1  UNL1        0.0509
     26 C          64.3504   83.9638   13.4409 C.ar    1  UNL1        0.0147
     27 C          63.7900   83.3266   12.2040 C.ar    1  UNL1        0.0029
     28 C          62.8411   84.0919   11.3300 C.ar    1  UNL1        0.0210
     29 C          62.4526   85.4945   11.6929 C.ar    1  UNL1        0.1041
     30 C          63.0129   86.1318   12.9298 C.ar    1  UNL1        0.0355
     31 N          61.5037   86.2599   10.8190 N.ar    1  UNL1       -0.1478
     32 N          61.1253   85.9101    9.4103 N.ar    1  UNL1       -0.1447
     33 C          60.1544   86.9434    8.9209 C.ar    1  UNL1        0.1446
     34 C          59.9327   87.9319   10.0272 C.ar    1  UNL1        0.1446
     35 N          60.7666   87.5094   11.2003 N.ar    1  UNL1       -0.1447
@<TRIPOS>BOND
     1     7     8   am
     2     8     9    2
     3     8     1    1
     4     1     2   ar
     5     2     3   ar
     6     3     4   ar
     7     4    12    1
     8    14    12    1
     9    14    15    1
    10    15    16    1
    11    16    17    1
    12    17    18    1
    13    18    19    1
    14    19    20    1
    15     4     5   ar
    16     5     6   ar
    17     6    23    1
    18    23    25    1
    19    25    26   ar
    20    26    27   ar
    21    27    28   ar
    22    28    29   ar
    23    29    31    1
    24    31    32   ar
    25    32    33   ar
    26    33    34   ar
    27    34    35   ar
    28    29    30   ar
    29     6     1   ar
    30    30    25   ar
    31    19    14    1
    32    35    31   ar
    33     7    10    1
    34     7    11    1
    35    12    13    1
    36    20    21    1
    37    20    22    1
    38    23    24    1
@<TRIPOS>MOLECULE
*****
 35 38 0 0 0
SMALL
GASTEIGER

@<TRIPOS>ATOM
      1 C          64.3961   91.2425   12.7671 C.ar    1  UNL1        0.1040
      2 C          65.3911   91.0211   13.8675 C.ar    1  UNL1        0.1091
      3 N          65.1049   90.0198   14.9471 N.ar    1  UNL1       -0.2120
      4 C          63.8238   89.2400   14.9264 C.ar    1  UNL1        0.2181
      5 N          62.8288   89.4613   13.8260 N.ar    1  UNL1       -0.1986
      6 C          63.1150   90.4626   12.7463 C.ar    1  UNL1        0.1409
      7 N          65.4891   93.4698   11.9964 N.am    1  UNL1       -0.3252
      8 C          64.6822   92.2437   11.6874 C.2     1  UNL1        0.2470
      9 O          64.1614   92.0188   10.2989 O.2     1  UNL1       -0.2702
     10 H          65.6769   94.1269   11.2877 H       1  UNL1        0.1453
     11 H          65.8310   93.6174   12.9077 H       1  UNL1        0.1453
     12 N          63.5377   88.2387   16.0060 N.pl3   1  UNL1       -0.3033
     13 H          63.2762   88.5448   16.9045 H       1  UNL1        0.1496
     14 C          63.6499   86.7712   15.7168 C.3     1  UNL1        0.0858
     15 C          64.7048   86.2709   14.7750 C.3     1  UNL1        0.0209
     16 C          64.8170   84.8033   14.4858 C.3     1  UNL1        0.0018
     17 C          63.8744   83.8360   15.1383 C.3     1  UNL1        0.0015
     18 C          62.8196   84.3363   16.0801 C.3     1  UNL1        0.0172
     19 C          62.7073   85.8039   16.3694 C.3     1  UNL1        0.0690
     20 N          61.6525   86.3042   17.3112 N.3     1  UNL1       -0.3209
     21 H          61.1060   85.5163   17.6592 H       1  UNL1        0.1189
     22 H          61.0381   86.9534   16.8198 H       1  UNL1        0.1189
     23 N          62.1199   90.6839   11.6459 N.pl3   1  UNL1       -0.2977
     24 H          61.7514   91.5833   11.4889 H       1  UNL1        0.1536
     25 C          61.6862   89.5350   10.7846 C.ar    1  UNL1        0.0509
     26 C          60.6277   89.7375    9.7412 C.ar    1  UNL1        0.0147
     27 C          60.1940   88.5885    8.8799 C.ar    1  UNL1        0.0029
     28 C          60.8188   87.2371    9.0620 C.ar    1  UNL1        0.0210
     29 C          61.8773   87.0345   10.1054 C.ar    1  UNL1        0.1041
     30 C          62.3109   88.1835   10.9667 C.ar    1  UNL1        0.0355
     31 N          62.5020   85.6831   10.2876 N.ar    1  UNL1       -0.1478
     32 N          62.5188   84.8833   11.5564 N.ar    1  UNL1       -0.1447
     33 C          63.2468   83.6001   11.2859 C.ar    1  UNL1        0.1446
     34 C          63.6800   83.6067    9.8498 C.ar    1  UNL1        0.1446
     35 N          63.2197   84.8941    9.2328 N.ar    1  UNL1       -0.1447
@<TRIPOS>BOND
     1     7     8   am
     2     8     9    2
     3     8     1    1
     4     1     2   ar
     5     2     3   ar
     6     3     4   ar
     7     4    12    1
     8    14    12    1
     9    14    15    1
    10    15    16    1
    11    16    17    1
    12    17    18    1
    13    18    19    1
    14    19    20    1
    15     4     5   ar
    16     5     6   ar
    17     6    23    1
    18    23    25    1
    19    25    26   ar
    20    26    27   ar
    21    27    28   ar
    22    28    29   ar
    23    29    31    1
    24    31    32   ar
    25    32    33   ar
    26    33    34   ar
    27    34    35   ar
    28    29    30   ar
    29     6     1   ar
    30    30    25   ar
    31    19    14    1
    32    35    31   ar
    33     7    10    1
    34     7    11    1
    35    12    13    1
    36    20    21    1
    37    20    22    1
    38    23    24    1
