@<TRIPOS>MOLECULE
*****
 44 48 0 0 0
SMALL
GASTEIGER

@<TRIPOS>ATOM
      1 C          61.7378   87.2112   10.0853 C.ar    1  UNL1        0.0611
      2 C          61.6587   85.7159    9.9953 C.ar    1  UNL1        0.0112
      3 C          62.2078   84.8678   11.1041 C.ar    1  UNL1        0.0208
      4 C          62.8358   85.5150   12.3028 C.ar    1  UNL1        0.1218
      5 N          62.9149   87.0102   12.3927 N.ar    1  UNL1       -0.2421
      6 C          62.3658   87.8583   11.2839 C.ar    1  UNL1        0.1068
      7 C          63.3849   84.6669   13.4115 C.3     1  UNL1        0.3254
      8 F          62.0056   84.1217   13.1863 F       1  UNL1       -0.1949
      9 F          64.6693   85.4404   13.3671 F       1  UNL1       -0.1949
     10 C          63.9339   83.8188   14.5203 C.3     1  UNL1        0.1932
     11 O          64.4829   82.9707   15.6290 O.3     1  UNL1       -0.3755
     12 H          64.8521   83.5420   16.3206 H       1  UNL1        0.2110
     13 C          63.5224   82.5820   13.7780 C.ar    1  UNL1        0.0368
     14 C          62.4824   81.6702   14.3583 C.ar    1  UNL1        0.0028
     15 C          62.0709   80.4333   13.6160 C.ar    1  UNL1        0.0295
     16 C          62.6994   80.1084   12.2934 C.ar    1  UNL1        0.1424
     17 F          62.2879   78.8716   11.5511 F       1  UNL1       -0.2041
     18 C          63.7394   81.0203   11.7131 C.ar    1  UNL1        0.0590
     19 C          64.1509   82.2571   12.4554 C.ar    1  UNL1        0.1408
     20 F          65.1909   83.1690   11.8749 F       1  UNL1       -0.2043
     21 C          64.3454   85.0556   15.2625 C.3     1  UNL1        0.1679
     22 N          63.3241   85.8488   16.0226 N.ar    1  UNL1       -0.2078
     23 C          63.4528   87.2846   16.4370 C.ar    1  UNL1        0.2216
     24 N          62.2029   87.6687   17.1724 N.ar    1  UNL1       -0.1048
     25 N          61.3019   86.4702   17.2124 N.ar    1  UNL1       -0.0226
     26 N          61.9948   85.3454   16.5019 N.ar    1  UNL1       -0.0428
     27 C          60.6397   88.9074    7.8678 C.1     1  UNL1       -0.0597
     28 C          61.1888   88.0593    8.9765 C.1     1  UNL1       -0.0582
     29 C          58.9927   91.4516    4.5416 C.ar    1  UNL1        0.0212
     30 C          60.4759   91.2959    4.7026 C.ar    1  UNL1       -0.0001
     31 C          61.0249   90.4478    5.8113 C.ar    1  UNL1        0.0080
     32 C          60.0907   89.7555    6.7590 C.ar    1  UNL1        0.0420
     33 C          58.6076   89.9113    6.5980 C.ar    1  UNL1        0.0080
     34 C          58.0586   90.7594    5.4892 C.ar    1  UNL1       -0.0001
     35 C          58.4436   92.2997    3.4328 C.3     1  UNL1        0.2320
     36 O          59.2217   93.4827    2.9378 O.3     1  UNL1       -0.4706
     37 C          61.5823   93.1848   -0.8818 C.ar    1  UNL1        0.0686
     38 C          60.0845   93.1136   -0.9183 C.ar    1  UNL1        0.0134
     39 C          59.2976   93.2129    0.3549 C.ar    1  UNL1        0.0376
     40 C          60.0086   93.3834    1.6646 C.ar    1  UNL1        0.1391
     41 C          61.5064   93.4546    1.7011 C.ar    1  UNL1        0.0376
     42 C          62.2933   93.3553    0.4280 C.ar    1  UNL1        0.0134
     43 N          63.1560   92.9861   -3.4281 N.1     1  UNL1       -0.1908
     44 C          62.3692   93.0854   -2.1549 C.1     1  UNL1        0.1004
@<TRIPOS>BOND
     1    43    44    3
     2    44    37    1
     3    37    38   ar
     4    38    39   ar
     5    39    40   ar
     6    40    36    1
     7    36    35    1
     8    35    29    1
     9    29    30   ar
    10    30    31   ar
    11    31    32   ar
    12    32    27    1
    13    27    28    3
    14    28     1    1
    15     1     2   ar
    16     2     3   ar
    17     3     4   ar
    18     4     7    1
    19     7     8    1
    20     7     9    1
    21     7    10    1
    22    10    11    1
    23    10    21    1
    24    21    22    1
    25    22    23   ar
    26    23    24   ar
    27    24    25   ar
    28    25    26   ar
    29    10    13    1
    30    13    14   ar
    31    14    15   ar
    32    15    16   ar
    33    16    17    1
    34    16    18   ar
    35    18    19   ar
    36    19    20    1
    37     4     5   ar
    38     5     6   ar
    39    32    33   ar
    40    33    34   ar
    41    40    41   ar
    42    41    42   ar
    43    42    37   ar
    44    34    29   ar
    45     6     1   ar
    46    26    22   ar
    47    19    13   ar
    48    11    12    1
@<TRIPOS>MOLECULE
*****
 44 48 0 0 0
SMALL
GASTEIGER

@<TRIPOS>ATOM
      1 C          61.4712   87.3238    9.8005 C.ar    1  UNL1        0.0611
      2 C          61.4018   85.8319    9.6615 C.ar    1  UNL1        0.0112
      3 C          61.9019   84.9515   10.7682 C.ar    1  UNL1        0.0208
      4 C          62.4715   85.5630   12.0139 C.ar    1  UNL1        0.1218
      5 N          62.5408   87.0549   12.1528 N.ar    1  UNL1       -0.2421
      6 C          62.0407   87.9353   11.0462 C.ar    1  UNL1        0.1068
      7 C          62.9716   84.6826   13.1206 C.3     1  UNL1        0.3254
      8 F          61.6920   85.2510   13.6590 F       1  UNL1       -0.1949
      9 F          64.1656   84.3165   12.2897 F       1  UNL1       -0.1949
     10 C          63.4717   83.8022   14.2272 C.3     1  UNL1        0.1932
     11 O          63.9719   82.9218   15.3339 O.3     1  UNL1       -0.3755
     12 H          64.1440   82.0325   14.9869 H       1  UNL1        0.2110
     13 C          63.3662   84.9496   15.1877 C.ar    1  UNL1        0.0368
     14 C          62.3378   84.9218   16.2792 C.ar    1  UNL1        0.0028
     15 C          62.2323   86.0692   17.2397 C.ar    1  UNL1        0.0295
     16 C          63.1552   87.2443   17.1086 C.ar    1  UNL1        0.1424
     17 F          63.0497   88.3916   18.0690 F       1  UNL1       -0.2041
     18 C          64.1836   87.2721   16.0170 C.ar    1  UNL1        0.0590
     19 C          64.2891   86.1247   15.0566 C.ar    1  UNL1        0.1408
     20 F          65.3177   86.1525   13.9650 F       1  UNL1       -0.2043
     21 C          63.5773   82.6549   13.2668 C.3     1  UNL1        0.1679
     22 N          62.6667   81.4714   13.4092 N.ar    1  UNL1       -0.2078
     23 C          62.8823   80.1155   12.8053 C.ar    1  UNL1        0.2216
     24 N          61.7294   79.2421   13.2034 N.ar    1  UNL1       -0.1048
     25 N          60.8014   80.0584   14.0532 N.ar    1  UNL1       -0.0226
     26 N          61.3806   81.4362   14.1804 N.ar    1  UNL1       -0.0428
     27 C          60.4709   89.0847    7.5871 C.1     1  UNL1       -0.0597
     28 C          60.9710   88.2042    8.6938 C.1     1  UNL1       -0.0582
     29 C          58.9705   91.7259    4.2671 C.ar    1  UNL1        0.0212
     30 C          57.9960   91.0375    5.1764 C.ar    1  UNL1       -0.0001
     31 C          58.4962   90.1571    6.2831 C.ar    1  UNL1        0.0080
     32 C          59.9707   89.9651    6.4805 C.ar    1  UNL1        0.0420
     33 C          60.9451   90.6534    5.5712 C.ar    1  UNL1        0.0080
     34 C          60.4449   91.5338    4.4645 C.ar    1  UNL1       -0.0001
     35 C          58.4703   92.6063    3.1604 C.3     1  UNL1        0.2320
     36 O          59.1786   92.6246    1.8383 O.3     1  UNL1       -0.4706
     37 C          62.8617   95.1522    1.2939 C.ar    1  UNL1        0.0686
     38 C          61.5568   95.7966    1.6567 C.ar    1  UNL1        0.0134
     39 C          60.3291   94.9541    1.8382 C.ar    1  UNL1        0.0376
     40 C          60.4063   93.4671    1.6569 C.ar    1  UNL1        0.1391
     41 C          61.7113   92.8227    1.2940 C.ar    1  UNL1        0.0376
     42 C          62.9390   93.6652    1.1125 C.ar    1  UNL1        0.0134
     43 N          65.3171   96.8372    0.9309 N.1     1  UNL1       -0.1908
     44 C          64.0894   95.9947    1.1124 C.1     1  UNL1        0.1004
@<TRIPOS>BOND
     1    43    44    3
     2    44    37    1
     3    37    38   ar
     4    38    39   ar
     5    39    40   ar
     6    40    36    1
     7    36    35    1
     8    35    29    1
     9    29    30   ar
    10    30    31   ar
    11    31    32   ar
    12    32    27    1
    13    27    28    3
    14    28     1    1
    15     1     2   ar
    16     2     3   ar
    17     3     4   ar
    18     4     7    1
    19     7     8    1
    20     7     9    1
    21     7    10    1
    22    10    11    1
    23    10    21    1
    24    21    22    1
    25    22    23   ar
    26    23    24   ar
    27    24    25   ar
    28    25    26   ar
    29    10    13    1
    30    13    14   ar
    31    14    15   ar
    32    15    16   ar
    33    16    17    1
    34    16    18   ar
    35    18    19   ar
    36    19    20    1
    37     4     5   ar
    38     5     6   ar
    39    32    33   ar
    40    33    34   ar
    41    40    41   ar
    42    41    42   ar
    43    42    37   ar
    44    34    29   ar
    45     6     1   ar
    46    26    22   ar
    47    19    13   ar
    48    11    12    1
@<TRIPOS>MOLECULE
*****
 44 48 0 0 0
SMALL
GASTEIGER

@<TRIPOS>ATOM
      1 C          60.3426   91.7539    4.0613 C.ar    1  UNL1        0.0611
      2 C          61.5828   92.0103    3.2575 C.ar    1  UNL1        0.0112
      3 C          61.5110   92.8452    2.0134 C.ar    1  UNL1        0.0208
      4 C          60.1989   93.4236    1.5730 C.ar    1  UNL1        0.1218
      5 N          58.9587   93.1672    2.3768 N.ar    1  UNL1       -0.2421
      6 C          59.0305   92.3323    3.6210 C.ar    1  UNL1        0.1068
      7 C          60.1270   94.2584    0.3289 C.3     1  UNL1        0.3254
      8 F          60.6683   92.9430   -0.1474 F       1  UNL1       -0.1949
      9 F          59.5871   95.4059    1.1300 F       1  UNL1       -0.1949
     10 C          60.0552   95.0932   -0.9152 C.3     1  UNL1        0.1932
     11 O          59.9833   95.9281   -2.1594 O.3     1  UNL1       -0.3755
     12 H          60.6192   96.6578   -2.0963 H       1  UNL1        0.2110
     13 C          58.9868   94.1915   -1.4586 C.ar    1  UNL1        0.0368
     14 C          57.6179   94.1961   -0.8453 C.ar    1  UNL1        0.0028
     15 C          56.5495   93.2943   -1.3887 C.ar    1  UNL1        0.0295
     16 C          56.8499   92.3879   -2.5454 C.ar    1  UNL1        0.1424
     17 F          55.7815   91.4862   -3.0888 F       1  UNL1       -0.2041
     18 C          58.2187   92.3833   -3.1588 C.ar    1  UNL1        0.0590
     19 C          59.2872   93.2851   -2.6154 C.ar    1  UNL1        0.1408
     20 F          60.6560   93.2804   -3.2288 F       1  UNL1       -0.2043
     21 C          61.1236   95.9950   -0.3718 C.3     1  UNL1        0.1679
     22 N          62.5685   95.6875   -0.6320 N.ar    1  UNL1       -0.2078
     23 C          63.6427   95.5559    0.4065 C.ar    1  UNL1        0.2216
     24 N          64.9310   95.2446   -0.2961 N.ar    1  UNL1       -0.1048
     25 N          64.6529   95.1837   -1.7688 N.ar    1  UNL1       -0.0226
     26 N          63.1928   95.4574   -1.9764 N.ar    1  UNL1       -0.0428
     27 C          60.4862   90.0842    6.5496 C.1     1  UNL1       -0.0597
     28 C          60.4144   90.9191    5.3055 C.1     1  UNL1       -0.0582
     29 C          60.7018   87.5797   10.2820 C.ar    1  UNL1        0.0212
     30 C          61.2480   88.9768   10.2837 C.ar    1  UNL1       -0.0001
     31 C          61.1761   89.8116    9.0396 C.ar    1  UNL1        0.0080
     32 C          60.5581   89.2494    7.7938 C.ar    1  UNL1        0.0420
     33 C          60.0119   87.8524    7.7921 C.ar    1  UNL1        0.0080
     34 C          60.0838   87.0176    9.0363 C.ar    1  UNL1       -0.0001
     35 C          60.7736   86.7449   11.5262 C.3     1  UNL1        0.2320
     36 O          62.1052   86.3038   12.0576 O.3     1  UNL1       -0.4706
     37 C          62.7120   82.0348   13.3447 C.ar    1  UNL1        0.0686
     38 C          62.4876   83.1035   14.3730 C.ar    1  UNL1        0.0134
     39 C          62.2853   84.5265   13.9440 C.ar    1  UNL1        0.0376
     40 C          62.3075   84.8808   12.4866 C.ar    1  UNL1        0.1391
     41 C          62.5319   83.8121   11.4583 C.ar    1  UNL1        0.0376
     42 C          62.7341   82.3891   11.8874 C.ar    1  UNL1        0.0134
     43 N          63.1166   79.1887   14.2029 N.1     1  UNL1       -0.1908
     44 C          62.9143   80.6118   13.7738 C.1     1  UNL1        0.1004
@<TRIPOS>BOND
     1    43    44    3
     2    44    37    1
     3    37    38   ar
     4    38    39   ar
     5    39    40   ar
     6    40    36    1
     7    36    35    1
     8    35    29    1
     9    29    30   ar
    10    30    31   ar
    11    31    32   ar
    12    32    27    1
    13    27    28    3
    14    28     1    1
    15     1     2   ar
    16     2     3   ar
    17     3     4   ar
    18     4     7    1
    19     7     8    1
    20     7     9    1
    21     7    10    1
    22    10    11    1
    23    10    21    1
    24    21    22    1
    25    22    23   ar
    26    23    24   ar
    27    24    25   ar
    28    25    26   ar
    29    10    13    1
    30    13    14   ar
    31    14    15   ar
    32    15    16   ar
    33    16    17    1
    34    16    18   ar
    35    18    19   ar
    36    19    20    1
    37     4     5   ar
    38     5     6   ar
    39    32    33   ar
    40    33    34   ar
    41    40    41   ar
    42    41    42   ar
    43    42    37   ar
    44    34    29   ar
    45     6     1   ar
    46    26    22   ar
    47    19    13   ar
    48    11    12    1
@<TRIPOS>MOLECULE
*****
 44 48 0 0 0
SMALL
GASTEIGER

@<TRIPOS>ATOM
      1 C          61.5026   87.5026    9.4494 C.ar    1  UNL1        0.0611
      2 C          61.9098   86.0895    9.1533 C.ar    1  UNL1        0.0112
      3 C          62.3975   85.2021   10.2599 C.ar    1  UNL1        0.0208
      4 C          62.4780   85.7277   11.6626 C.ar    1  UNL1        0.1218
      5 N          62.0708   87.1406   11.9586 N.ar    1  UNL1       -0.2421
      6 C          61.5831   88.0281   10.8520 C.ar    1  UNL1        0.1068
      7 C          62.9657   84.8402   12.7692 C.3     1  UNL1        0.3254
      8 F          61.6323   85.3264   13.2548 F       1  UNL1       -0.1949
      9 F          64.2183   84.5604   11.9927 F       1  UNL1       -0.1949
     10 C          63.4535   83.9527   13.8758 C.3     1  UNL1        0.1932
     11 O          63.9412   83.0653   14.9823 O.3     1  UNL1       -0.3755
     12 H          64.0604   82.1637   14.6450 H       1  UNL1        0.2110
     13 C          63.4303   85.1178   14.8203 C.ar    1  UNL1        0.0368
     14 C          64.2006   86.3629   14.4944 C.ar    1  UNL1        0.0028
     15 C          64.1774   87.5279   15.4390 C.ar    1  UNL1        0.0295
     16 C          63.3840   87.4478   16.7094 C.ar    1  UNL1        0.1424
     17 F          63.3608   88.6129   17.6539 F       1  UNL1       -0.2041
     18 C          62.6137   86.2027   17.0352 C.ar    1  UNL1        0.0590
     19 C          62.6368   85.0377   16.0907 C.ar    1  UNL1        0.1408
     20 F          61.8665   83.7925   16.4166 F       1  UNL1       -0.2043
     21 C          63.4766   82.7877   12.9312 C.3     1  UNL1        0.1679
     22 N          62.6412   81.5748   13.2157 N.ar    1  UNL1       -0.2078
     23 C          62.8473   80.2067   12.6365 C.ar    1  UNL1        0.2216
     24 N          61.7865   79.3033   13.1922 N.ar    1  UNL1       -0.1048
     25 N          60.9248   80.1133   14.1150 N.ar    1  UNL1       -0.0226
     26 N          61.4530   81.5171   14.1295 N.ar    1  UNL1       -0.0428
     27 C          60.5271   89.2775    7.2362 C.1     1  UNL1       -0.0597
     28 C          61.0148   88.3900    8.3428 C.1     1  UNL1       -0.0582
     29 C          59.0640   91.9399    3.9164 C.ar    1  UNL1        0.0212
     30 C          58.0834   91.3152    4.8643 C.ar    1  UNL1       -0.0001
     31 C          58.5711   90.4278    5.9709 C.ar    1  UNL1        0.0080
     32 C          60.0394   90.1649    6.1296 C.ar    1  UNL1        0.0420
     33 C          61.0199   90.7896    5.1818 C.ar    1  UNL1        0.0080
     34 C          60.5322   91.6770    4.0752 C.ar    1  UNL1       -0.0001
     35 C          58.5762   92.8273    2.8098 C.3     1  UNL1        0.2320
     36 O          59.4519   93.9290    2.2908 O.3     1  UNL1       -0.4706
     37 C          61.9356   93.2774   -1.4047 C.ar    1  UNL1        0.0686
     38 C          60.4412   93.3539   -1.5092 C.ar    1  UNL1        0.0134
     39 C          59.6133   93.5711   -0.2774 C.ar    1  UNL1        0.0376
     40 C          60.2798   93.7118    1.0590 C.ar    1  UNL1        0.1391
     41 C          61.7741   93.6353    1.1636 C.ar    1  UNL1        0.0376
     42 C          62.6020   93.4181   -0.0683 C.ar    1  UNL1        0.0134
     43 N          63.5914   92.8429   -3.8683 N.1     1  UNL1       -0.1908
     44 C          62.7635   93.0601   -2.6365 C.1     1  UNL1        0.1004
@<TRIPOS>BOND
     1    43    44    3
     2    44    37    1
     3    37    38   ar
     4    38    39   ar
     5    39    40   ar
     6    40    36    1
     7    36    35    1
     8    35    29    1
     9    29    30   ar
    10    30    31   ar
    11    31    32   ar
    12    32    27    1
    13    27    28    3
    14    28     1    1
    15     1     2   ar
    16     2     3   ar
    17     3     4   ar
    18     4     7    1
    19     7     8    1
    20     7     9    1
    21     7    10    1
    22    10    11    1
    23    10    21    1
    24    21    22    1
    25    22    23   ar
    26    23    24   ar
    27    24    25   ar
    28    25    26   ar
    29    10    13    1
    30    13    14   ar
    31    14    15   ar
    32    15    16   ar
    33    16    17    1
    34    16    18   ar
    35    18    19   ar
    36    19    20    1
    37     4     5   ar
    38     5     6   ar
    39    32    33   ar
    40    33    34   ar
    41    40    41   ar
    42    41    42   ar
    43    42    37   ar
    44    34    29   ar
    45     6     1   ar
    46    26    22   ar
    47    19    13   ar
    48    11    12    1
@<TRIPOS>MOLECULE
*****
 44 48 0 0 0
SMALL
GASTEIGER

@<TRIPOS>ATOM
      1 C          60.2688   91.5942    4.2925 C.ar    1  UNL1        0.0611
      2 C          61.5033   91.9142    3.5027 C.ar    1  UNL1        0.0112
      3 C          61.3986   92.7173    2.2401 C.ar    1  UNL1        0.0208
      4 C          60.0594   93.2005    1.7674 C.ar    1  UNL1        0.1218
      5 N          58.8251   92.8804    2.5573 N.ar    1  UNL1       -0.2421
      6 C          58.9298   92.0773    3.8198 C.ar    1  UNL1        0.1068
      7 C          59.9548   94.0036    0.5049 C.3     1  UNL1        0.3254
      8 F          60.5058   92.6842    0.0512 F       1  UNL1       -0.1949
      9 F          59.4129   95.1630    1.2873 F       1  UNL1       -0.1949
     10 C          59.8501   94.8067   -0.7577 C.3     1  UNL1        0.1932
     11 O          59.7454   95.6098   -2.0202 O.3     1  UNL1       -0.3755
     12 H          58.8200   95.6381   -2.3096 H       1  UNL1        0.2110
     13 C          61.3308   95.0443   -0.7293 C.ar    1  UNL1        0.0368
     14 C          61.9125   96.0394    0.2306 C.ar    1  UNL1        0.0028
     15 C          63.3933   96.2770    0.2590 C.ar    1  UNL1        0.0295
     16 C          64.2924   95.5196   -0.6725 C.ar    1  UNL1        0.1424
     17 F          65.7732   95.7573   -0.6442 F       1  UNL1       -0.2041
     18 C          63.7108   94.5246   -1.6325 C.ar    1  UNL1        0.0590
     19 C          62.2300   94.2869   -1.6608 C.ar    1  UNL1        0.1408
     20 F          61.6483   93.2918   -2.6208 F       1  UNL1       -0.2043
     21 C          58.3693   94.5691   -0.7860 C.3     1  UNL1        0.1679
     22 N          57.7941   93.5281   -1.7000 N.ar    1  UNL1       -0.2078
     23 C          56.4474   92.8820   -1.5636 C.ar    1  UNL1        0.2216
     24 N          56.2857   91.9049   -2.6903 N.ar    1  UNL1       -0.1048
     25 N          57.5325   91.9472   -3.5230 N.ar    1  UNL1       -0.0226
     26 N          58.4648   92.9503   -2.9111 N.ar    1  UNL1       -0.0428
     27 C          60.4782   89.9880    6.8176 C.1     1  UNL1       -0.0597
     28 C          60.3735   90.7911    5.5551 C.1     1  UNL1       -0.0582
     29 C          60.7923   87.5786   10.6053 C.ar    1  UNL1        0.0212
     30 C          61.3144   88.9843   10.5651 C.ar    1  UNL1       -0.0001
     31 C          61.2097   89.7874    9.3026 C.ar    1  UNL1        0.0080
     32 C          60.5829   89.1848    8.0802 C.ar    1  UNL1        0.0420
     33 C          60.0609   87.7792    8.1204 C.ar    1  UNL1        0.0080
     34 C          60.1656   86.9761    9.3830 C.ar    1  UNL1       -0.0001
     35 C          60.8970   86.7755   11.8678 C.3     1  UNL1        0.2320
     36 O          62.2229   86.2195   12.2953 O.3     1  UNL1       -0.4706
     37 C          62.6170   81.8463   13.2803 C.ar    1  UNL1        0.0686
     38 C          62.3887   82.8444   14.3765 C.ar    1  UNL1        0.0134
     39 C          62.2573   84.3021   14.0481 C.ar    1  UNL1        0.0376
     40 C          62.3543   84.7618   12.6236 C.ar    1  UNL1        0.1391
     41 C          62.5827   83.7637   11.5275 C.ar    1  UNL1        0.0376
     42 C          62.7141   82.3060   11.8558 C.ar    1  UNL1        0.0134
     43 N          62.8798   78.9309   13.9371 N.1     1  UNL1       -0.1908
     44 C          62.7484   80.3886   13.6087 C.1     1  UNL1        0.1004
@<TRIPOS>BOND
     1    43    44    3
     2    44    37    1
     3    37    38   ar
     4    38    39   ar
     5    39    40   ar
     6    40    36    1
     7    36    35    1
     8    35    29    1
     9    29    30   ar
    10    30    31   ar
    11    31    32   ar
    12    32    27    1
    13    27    28    3
    14    28     1    1
    15     1     2   ar
    16     2     3   ar
    17     3     4   ar
    18     4     7    1
    19     7     8    1
    20     7     9    1
    21     7    10    1
    22    10    11    1
    23    10    21    1
    24    21    22    1
    25    22    23   ar
    26    23    24   ar
    27    24    25   ar
    28    25    26   ar
    29    10    13    1
    30    13    14   ar
    31    14    15   ar
    32    15    16   ar
    33    16    17    1
    34    16    18   ar
    35    18    19   ar
    36    19    20    1
    37     4     5   ar
    38     5     6   ar
    39    32    33   ar
    40    33    34   ar
    41    40    41   ar
    42    41    42   ar
    43    42    37   ar
    44    34    29   ar
    45     6     1   ar
    46    26    22   ar
    47    19    13   ar
    48    11    12    1
@<TRIPOS>MOLECULE
*****
 44 48 0 0 0
SMALL
GASTEIGER

@<TRIPOS>ATOM
      1 C          61.4746   87.5757    9.4640 C.ar    1  UNL1        0.0611
      2 C          62.0701   88.1941   10.6941 C.ar    1  UNL1        0.0112
      3 C          62.5756   87.3200   11.8033 C.ar    1  UNL1        0.0208
      4 C          62.4855   85.8276   11.6825 C.ar    1  UNL1        0.1218
      5 N          61.8901   85.2093   10.4524 N.ar    1  UNL1       -0.2421
      6 C          61.3846   86.0834    9.3432 C.ar    1  UNL1        0.1068
      7 C          62.9910   84.9535   12.7917 C.3     1  UNL1        0.3254
      8 F          61.6983   85.5004   13.3209 F       1  UNL1       -0.1949
      9 F          64.1972   84.6078   11.9697 F       1  UNL1       -0.1949
     10 C          63.4965   84.0794   13.9010 C.3     1  UNL1        0.1932
     11 O          64.0020   83.2053   15.0102 O.3     1  UNL1       -0.3755
     12 H          64.1329   82.3036   14.6773 H       1  UNL1        0.2110
     13 C          63.4605   85.2492   14.8392 C.ar    1  UNL1        0.0368
     14 C          64.2248   86.4974   14.5112 C.ar    1  UNL1        0.0028
     15 C          64.1888   87.6672   15.4494 C.ar    1  UNL1        0.0295
     16 C          63.3884   87.5888   16.7156 C.ar    1  UNL1        0.1424
     17 F          63.3524   88.7586   17.6539 F       1  UNL1       -0.2041
     18 C          62.6242   86.3405   17.0436 C.ar    1  UNL1        0.0590
     19 C          62.6602   85.1707   16.1054 C.ar    1  UNL1        0.1408
     20 F          61.8958   83.9224   16.4334 F       1  UNL1       -0.2043
     21 C          63.5325   82.9096   12.9628 C.3     1  UNL1        0.1679
     22 N          62.7112   81.6887   13.2543 N.ar    1  UNL1       -0.2078
     23 C          62.9036   80.3310   12.6467 C.ar    1  UNL1        0.2216
     24 N          61.8645   79.4144   13.2216 N.ar    1  UNL1       -0.1048
     25 N          61.0300   80.2057   14.1845 N.ar    1  UNL1       -0.0226
     26 N          61.5533   81.6114   14.2048 N.ar    1  UNL1       -0.0428
     27 C          60.4636   89.3239    7.2454 C.1     1  UNL1       -0.0597
     28 C          60.9691   88.4498    8.3547 C.1     1  UNL1       -0.0582
     29 C          58.9472   91.9462    3.9177 C.ar    1  UNL1        0.0212
     30 C          60.4210   91.7198    4.0819 C.ar    1  UNL1       -0.0001
     31 C          60.9264   90.8457    5.1911 C.ar    1  UNL1        0.0080
     32 C          59.9582   90.1980    6.1362 C.ar    1  UNL1        0.0420
     33 C          58.4845   90.4245    5.9719 C.ar    1  UNL1        0.0080
     34 C          57.9790   91.2986    4.8627 C.ar    1  UNL1       -0.0001
     35 C          58.4417   92.8203    2.8084 C.3     1  UNL1        0.2320
     36 O          59.3938   93.3488    1.7768 O.3     1  UNL1       -0.4706
     37 C          58.3698   93.0470   -2.5947 C.ar    1  UNL1        0.0686
     38 C          59.7774   93.3484   -2.1732 C.ar    1  UNL1        0.0134
     39 C          60.1187   93.4491   -0.7160 C.ar    1  UNL1        0.0376
     40 C          59.0525   93.2482    0.3197 C.ar    1  UNL1        0.1391
     41 C          57.6449   92.9467   -0.1018 C.ar    1  UNL1        0.0376
     42 C          57.3035   92.8461   -1.5590 C.ar    1  UNL1        0.0134
     43 N          57.6871   92.8457   -5.5090 N.1     1  UNL1       -0.1908
     44 C          58.0284   92.9463   -4.0518 C.1     1  UNL1        0.1004
@<TRIPOS>BOND
     1    43    44    3
     2    44    37    1
     3    37    38   ar
     4    38    39   ar
     5    39    40   ar
     6    40    36    1
     7    36    35    1
     8    35    29    1
     9    29    30   ar
    10    30    31   ar
    11    31    32   ar
    12    32    27    1
    13    27    28    3
    14    28     1    1
    15     1     2   ar
    16     2     3   ar
    17     3     4   ar
    18     4     7    1
    19     7     8    1
    20     7     9    1
    21     7    10    1
    22    10    11    1
    23    10    21    1
    24    21    22    1
    25    22    23   ar
    26    23    24   ar
    27    24    25   ar
    28    25    26   ar
    29    10    13    1
    30    13    14   ar
    31    14    15   ar
    32    15    16   ar
    33    16    17    1
    34    16    18   ar
    35    18    19   ar
    36    19    20    1
    37     4     5   ar
    38     5     6   ar
    39    32    33   ar
    40    33    34   ar
    41    40    41   ar
    42    41    42   ar
    43    42    37   ar
    44    34    29   ar
    45     6     1   ar
    46    26    22   ar
    47    19    13   ar
    48    11    12    1
@<TRIPOS>MOLECULE
*****
 44 48 0 0 0
SMALL
GASTEIGER

@<TRIPOS>ATOM
      1 C          60.1184   91.5805    4.1803 C.ar    1  UNL1        0.0611
      2 C          61.3430   91.9970    3.4208 C.ar    1  UNL1        0.0112
      3 C          61.2101   92.8435    2.1896 C.ar    1  UNL1        0.0208
      4 C          59.8526   93.2735    1.7180 C.ar    1  UNL1        0.1218
      5 N          58.6281   92.8570    2.4776 N.ar    1  UNL1       -0.2421
      6 C          58.7610   92.0105    3.7087 C.ar    1  UNL1        0.1068
      7 C          59.7197   94.1200    0.4868 C.3     1  UNL1        0.3254
      8 F          60.0923   92.7665   -0.0417 F       1  UNL1       -0.1949
      9 F          59.3690   95.3038    1.3386 F       1  UNL1       -0.1949
     10 C          59.5869   94.9665   -0.7443 C.3     1  UNL1        0.1932
     11 O          59.4540   95.8130   -1.9755 O.3     1  UNL1       -0.3755
     12 H          58.5173   95.8895   -2.2157 H       1  UNL1        0.2110
     13 C          61.0762   95.1404   -0.7855 C.ar    1  UNL1        0.0368
     14 C          61.7418   96.1262    0.1283 C.ar    1  UNL1        0.0028
     15 C          63.2311   96.3001    0.0871 C.ar    1  UNL1        0.0295
     16 C          64.0548   95.4881   -0.8679 C.ar    1  UNL1        0.1424
     17 F          65.5442   95.6620   -0.9091 F       1  UNL1       -0.2041
     18 C          63.3893   94.5022   -1.7817 C.ar    1  UNL1        0.0590
     19 C          61.9000   94.3284   -1.7405 C.ar    1  UNL1        0.1408
     20 F          61.2344   93.3424   -2.6543 F       1  UNL1       -0.2043
     21 C          58.0976   94.7926   -0.7031 C.3     1  UNL1        0.1679
     22 N          57.4547   93.6546   -1.4390 N.ar    1  UNL1       -0.2078
     23 C          57.9401   93.0480   -2.7220 C.ar    1  UNL1        0.2216
     24 N          56.9988   91.9418   -3.0971 N.ar    1  UNL1       -0.1048
     25 N          55.9317   91.8649   -2.0458 N.ar    1  UNL1       -0.0226
     26 N          56.2134   92.9234   -1.0211 N.ar    1  UNL1       -0.0428
     27 C          60.3841   89.8874    6.6427 C.1     1  UNL1       -0.0597
     28 C          60.2512   90.7340    5.4115 C.1     1  UNL1       -0.0582
     29 C          60.7827   87.3479   10.3362 C.ar    1  UNL1        0.0212
     30 C          60.7163   88.8417   10.4566 C.ar    1  UNL1       -0.0001
     31 C          60.5835   89.6882    9.2254 C.ar    1  UNL1        0.0080
     32 C          60.5170   89.0409    7.8738 C.ar    1  UNL1        0.0420
     33 C          60.5834   87.5473    7.7535 C.ar    1  UNL1        0.0080
     34 C          60.7163   86.7008    8.9846 C.ar    1  UNL1       -0.0001
     35 C          60.9156   86.5014   11.5673 C.3     1  UNL1        0.2320
     36 O          62.2673   86.2661   12.1734 O.3     1  UNL1       -0.4706
     37 C          64.5070   89.6769   14.0710 C.ar    1  UNL1        0.0686
     38 C          64.5314   88.3181   14.7058 C.ar    1  UNL1        0.0134
     39 C          63.7849   87.1812   14.0733 C.ar    1  UNL1        0.0376
     40 C          63.0139   87.4030   12.8059 C.ar    1  UNL1        0.1391
     41 C          62.9895   88.7618   12.1711 C.ar    1  UNL1        0.0376
     42 C          63.7360   89.8987   12.8036 C.ar    1  UNL1        0.0134
     43 N          66.0001   91.9507   15.3360 N.1     1  UNL1       -0.1908
     44 C          65.2536   90.8138   14.7035 C.1     1  UNL1        0.1004
@<TRIPOS>BOND
     1    43    44    3
     2    44    37    1
     3    37    38   ar
     4    38    39   ar
     5    39    40   ar
     6    40    36    1
     7    36    35    1
     8    35    29    1
     9    29    30   ar
    10    30    31   ar
    11    31    32   ar
    12    32    27    1
    13    27    28    3
    14    28     1    1
    15     1     2   ar
    16     2     3   ar
    17     3     4   ar
    18     4     7    1
    19     7     8    1
    20     7     9    1
    21     7    10    1
    22    10    11    1
    23    10    21    1
    24    21    22    1
    25    22    23   ar
    26    23    24   ar
    27    24    25   ar
    28    25    26   ar
    29    10    13    1
    30    13    14   ar
    31    14    15   ar
    32    15    16   ar
    33    16    17    1
    34    16    18   ar
    35    18    19   ar
    36    19    20    1
    37     4     5   ar
    38     5     6   ar
    39    32    33   ar
    40    33    34   ar
    41    40    41   ar
    42    41    42   ar
    43    42    37   ar
    44    34    29   ar
    45     6     1   ar
    46    26    22   ar
    47    19    13   ar
    48    11    12    1
