@<TRIPOS>MOLECULE
*****
 23 25 0 0 0
SMALL
GASTEIGER

@<TRIPOS>ATOM
      1 C          61.3601   88.0607   10.8988 C.ar    1  UNL1       -0.0143
      2 C          62.1925   86.8525   11.2107 C.ar    1  UNL1        0.0051
      3 S          62.0267   85.8728   10.0869 S.2     1  UNL1       -0.0915
      4 C          61.0919   86.4757    9.0805 C.ar    1  UNL1        0.0288
      5 C          60.5627   85.9680    7.7720 C.ar    1  UNL1        0.0065
      6 C          59.6215   86.8125    6.9654 C.ar    1  UNL1        0.0005
      7 C          59.2095   88.1648    7.4671 C.ar    1  UNL1        0.0000
      8 C          59.7388   88.6724    8.7756 C.ar    1  UNL1        0.0002
      9 C          60.6800   87.8279    9.5823 C.ar    1  UNL1        0.0025
     10 C          59.8773   89.7391   12.2158 C.3     1  UNL1        0.0111
     11 C          61.2307   89.2867   11.7533 C.3     1  UNL1        0.0649
     12 C          62.4544   90.0603   12.1454 C.ar    1  UNL1        0.0900
     13 N          62.9579   90.0026   13.5573 N.ar    1  UNL1       -0.2456
     14 C          64.1817   90.7762   13.9495 C.ar    1  UNL1        0.0986
     15 C          64.9021   91.6076   12.9298 C.ar    1  UNL1        0.0230
     16 C          64.3987   91.6654   11.5180 C.ar    1  UNL1        0.0325
     17 C          63.1749   90.8918   11.1258 C.ar    1  UNL1        0.1539
     18 F          62.6715   90.9496    9.7140 F       1  UNL1       -0.2029
     19 C          63.0415   86.6580   12.4319 C.3     1  UNL1        0.0499
     20 C          63.2160   85.2863   13.0133 C.3     1  UNL1        0.0774
     21 N          63.2835   85.1053   14.5008 N.3     1  UNL1       -0.2700
     22 C          64.1821   85.9809   15.3229 C.3     1  UNL1        0.0897
     23 C          62.4524   84.0486   15.1662 C.3     1  UNL1        0.0897
@<TRIPOS>BOND
     1    11    10    1
     2    11    12    1
     3    12    13   ar
     4    13    14   ar
     5    14    15   ar
     6    15    16   ar
     7    16    17   ar
     8    17    18    1
     9    11     1    1
    10     1     2   ar
    11     2    19    1
    12    19    20    1
    13    20    21    1
    14    21    22    1
    15    21    23    1
    16     2     3   ar
    17     3     4   ar
    18     4     5   ar
    19     5     6   ar
    20     6     7   ar
    21     7     8   ar
    22     8     9   ar
    23    17    12   ar
    24     9     1   ar
    25     9     4   ar
@<TRIPOS>MOLECULE
*****
 23 25 0 0 0
SMALL
GASTEIGER

@<TRIPOS>ATOM
      1 C          65.3785   92.2395   12.8910 C.ar    1  UNL1       -0.0143
      2 C          65.3893   91.5938   14.2449 C.ar    1  UNL1        0.0051
      3 S          64.3955   90.4704   14.2306 S.2     1  UNL1       -0.0915
      4 C          63.7704   90.4218   12.8679 C.ar    1  UNL1        0.0288
      5 C          62.7265   89.5232   12.2740 C.ar    1  UNL1        0.0065
      6 C          62.2902   89.7179   10.8521 C.ar    1  UNL1        0.0005
      7 C          62.8978   90.8113   10.0242 C.ar    1  UNL1        0.0000
      8 C          63.9417   91.7099   10.6182 C.ar    1  UNL1        0.0002
      9 C          64.3780   91.5151   12.0400 C.ar    1  UNL1        0.0025
     10 C          66.3832   94.5866   13.3729 C.3     1  UNL1        0.0111
     11 C          66.2204   93.4049   12.4632 C.3     1  UNL1        0.0649
     12 C          66.8996   93.3888   11.1260 C.ar    1  UNL1        0.0900
     13 N          67.9494   92.3588   10.8303 N.ar    1  UNL1       -0.2456
     14 C          68.6286   92.3426    9.4930 C.ar    1  UNL1        0.0986
     15 C          68.2581   93.3564    8.4514 C.ar    1  UNL1        0.0230
     16 C          67.2084   94.3863    8.7470 C.ar    1  UNL1        0.0325
     17 C          66.5292   94.4025   10.0843 C.ar    1  UNL1        0.1539
     18 F          65.4795   95.4324   10.3799 F       1  UNL1       -0.2029
     19 C          66.2440   92.0002   15.4087 C.3     1  UNL1        0.0499
     20 C          67.6840   91.5838   15.4633 C.3     1  UNL1        0.0774
     21 N          68.7618   92.5618   15.1000 N.3     1  UNL1       -0.2700
     22 C          69.6647   92.2842   13.9348 C.3     1  UNL1        0.0897
     23 C          68.9366   93.8173   15.9019 C.3     1  UNL1        0.0897
@<TRIPOS>BOND
     1    11    10    1
     2    11    12    1
     3    12    13   ar
     4    13    14   ar
     5    14    15   ar
     6    15    16   ar
     7    16    17   ar
     8    17    18    1
     9    11     1    1
    10     1     2   ar
    11     2    19    1
    12    19    20    1
    13    20    21    1
    14    21    22    1
    15    21    23    1
    16     2     3   ar
    17     3     4   ar
    18     4     5   ar
    19     5     6   ar
    20     6     7   ar
    21     7     8   ar
    22     8     9   ar
    23    17    12   ar
    24     9     1   ar
    25     9     4   ar
@<TRIPOS>MOLECULE
*****
 23 25 0 0 0
SMALL
GASTEIGER

@<TRIPOS>ATOM
      1 C          63.3788   87.0598   12.8975 C.ar    1  UNL1       -0.0143
      2 C          63.5957   88.5297   13.1030 C.ar    1  UNL1        0.0051
      3 S          62.9313   89.2587   11.9729 S.2     1  UNL1       -0.0915
      4 C          62.3038   88.2393   11.0690 C.ar    1  UNL1        0.0288
      5 C          61.5163   88.3730    9.7994 C.ar    1  UNL1        0.0065
      6 C          61.0054   87.1477    9.1012 C.ar    1  UNL1        0.0005
      7 C          61.2819   85.7886    9.6727 C.ar    1  UNL1        0.0000
      8 C          62.0694   85.6549   10.9423 C.ar    1  UNL1        0.0002
      9 C          62.5804   86.8803   11.6404 C.ar    1  UNL1        0.0025
     10 C          64.6206   86.2978   15.0488 C.3     1  UNL1        0.0111
     11 C          63.8735   85.9620   13.7921 C.3     1  UNL1        0.0649
     12 C          63.6211   84.5284   13.4301 C.ar    1  UNL1        0.0900
     13 N          64.4801   83.8518   12.4032 N.ar    1  UNL1       -0.2456
     14 C          64.2278   82.4182   12.0411 C.ar    1  UNL1        0.0986
     15 C          63.1165   81.6611   12.7060 C.ar    1  UNL1        0.0230
     16 C          62.2576   82.3378   13.7328 C.ar    1  UNL1        0.0325
     17 C          62.5099   83.7714   14.0948 C.ar    1  UNL1        0.1539
     18 F          61.6509   84.4479   15.1216 F       1  UNL1       -0.2029
     19 C          64.3454   89.1600   14.2391 C.3     1  UNL1        0.0499
     20 C          64.0636   90.5813   14.6268 C.3     1  UNL1        0.0774
     21 N          65.0642   91.6553   14.3182 N.3     1  UNL1       -0.2700
     22 C          65.2454   92.1282   12.9062 C.3     1  UNL1        0.0897
     23 C          65.8835   92.2565   15.4215 C.3     1  UNL1        0.0897
@<TRIPOS>BOND
     1    11    10    1
     2    11    12    1
     3    12    13   ar
     4    13    14   ar
     5    14    15   ar
     6    15    16   ar
     7    16    17   ar
     8    17    18    1
     9    11     1    1
    10     1     2   ar
    11     2    19    1
    12    19    20    1
    13    20    21    1
    14    21    22    1
    15    21    23    1
    16     2     3   ar
    17     3     4   ar
    18     4     5   ar
    19     5     6   ar
    20     6     7   ar
    21     7     8   ar
    22     8     9   ar
    23    17    12   ar
    24     9     1   ar
    25     9     4   ar
@<TRIPOS>MOLECULE
*****
 23 25 0 0 0
SMALL
GASTEIGER

@<TRIPOS>ATOM
      1 C          63.4222   90.0937   12.7691 C.ar    1  UNL1       -0.0143
      2 C          64.0168   89.7707   14.1078 C.ar    1  UNL1        0.0051
      3 S          65.2199   90.6449   14.3036 S.2     1  UNL1       -0.0915
      4 C          65.3688   91.5081   13.0860 C.ar    1  UNL1        0.0288
      5 C          66.3726   92.5604   12.7183 C.ar    1  UNL1        0.0065
      6 C          66.2653   93.2719   11.4023 C.ar    1  UNL1        0.0005
      7 C          65.1542   92.9313   10.4539 C.ar    1  UNL1        0.0000
      8 C          64.1504   91.8790   10.8215 C.ar    1  UNL1        0.0002
      9 C          64.2578   91.1675   12.1376 C.ar    1  UNL1        0.0025
     10 C          60.8698   90.1274   12.2850 C.3     1  UNL1        0.0111
     11 C          62.2056   89.4550   12.1675 C.3     1  UNL1        0.0649
     12 C          62.3246   88.1440   11.4485 C.ar    1  UNL1        0.0900
     13 N          62.6756   86.9002   12.2099 N.ar    1  UNL1       -0.2456
     14 C          62.7947   85.5891   11.4909 C.ar    1  UNL1        0.0986
     15 C          62.5626   85.5219   10.0104 C.ar    1  UNL1        0.0230
     16 C          62.2115   86.7657    9.2491 C.ar    1  UNL1        0.0325
     17 C          62.0925   88.0767    9.9681 C.ar    1  UNL1        0.1539
     18 F          61.7414   89.3205    9.2066 F       1  UNL1       -0.2029
     19 C          63.4993   88.7523   15.0799 C.3     1  UNL1        0.0499
     20 C          64.1746   87.4183   15.1993 C.3     1  UNL1        0.0774
     21 N          63.5167   86.3106   15.9675 N.3     1  UNL1       -0.2700
     22 C          63.5254   84.9126   15.4238 C.3     1  UNL1        0.0897
     23 C          62.8501   86.6009   17.2795 C.3     1  UNL1        0.0897
@<TRIPOS>BOND
     1    11    10    1
     2    11    12    1
     3    12    13   ar
     4    13    14   ar
     5    14    15   ar
     6    15    16   ar
     7    16    17   ar
     8    17    18    1
     9    11     1    1
    10     1     2   ar
    11     2    19    1
    12    19    20    1
    13    20    21    1
    14    21    22    1
    15    21    23    1
    16     2     3   ar
    17     3     4   ar
    18     4     5   ar
    19     5     6   ar
    20     6     7   ar
    21     7     8   ar
    22     8     9   ar
    23    17    12   ar
    24     9     1   ar
    25     9     4   ar
@<TRIPOS>MOLECULE
*****
 23 25 0 0 0
SMALL
GASTEIGER

@<TRIPOS>ATOM
      1 C          63.3057   85.5954   12.7716 C.ar    1  UNL1       -0.0143
      2 C          62.7577   84.4876   11.9216 C.ar    1  UNL1        0.0051
      3 S          62.0893   85.1055   10.7294 S.2     1  UNL1       -0.0915
      4 C          62.2242   86.5951   10.8424 C.ar    1  UNL1        0.0288
      5 C          61.7597   87.7149    9.9592 C.ar    1  UNL1        0.0065
      6 C          62.0469   89.1375   10.3381 C.ar    1  UNL1        0.0005
      7 C          62.7987   89.4403   11.6003 C.ar    1  UNL1        0.0000
      8 C          63.2633   88.3205   12.4836 C.ar    1  UNL1        0.0002
      9 C          62.9760   86.8979   12.1046 C.ar    1  UNL1        0.0025
     10 C          65.2757   84.5633   14.1148 C.3     1  UNL1        0.0111
     11 C          64.0523   85.4298   14.0620 C.3     1  UNL1        0.0649
     12 C          63.5758   86.1306   15.2995 C.ar    1  UNL1        0.0900
     13 N          63.8304   87.5984   15.4755 N.ar    1  UNL1       -0.2456
     14 C          63.3538   88.2993   16.7130 C.ar    1  UNL1        0.0986
     15 C          62.6226   87.5324   17.7748 C.ar    1  UNL1        0.0230
     16 C          62.3680   86.0647   17.5989 C.ar    1  UNL1        0.0325
     17 C          62.8446   85.3638   16.3613 C.ar    1  UNL1        0.1539
     18 F          62.5899   83.8961   16.1855 F       1  UNL1       -0.2029
     19 C          62.8601   83.0197   12.2128 C.3     1  UNL1        0.0499
     20 C          62.2545   82.4596   13.4656 C.3     1  UNL1        0.0774
     21 N          61.7659   81.0417   13.4935 N.3     1  UNL1       -0.2700
     22 C          62.5803   79.9551   12.8560 C.3     1  UNL1        0.0897
     23 C          60.4630   80.7103   14.1587 C.3     1  UNL1        0.0897
@<TRIPOS>BOND
     1    11    10    1
     2    11    12    1
     3    12    13   ar
     4    13    14   ar
     5    14    15   ar
     6    15    16   ar
     7    16    17   ar
     8    17    18    1
     9    11     1    1
    10     1     2   ar
    11     2    19    1
    12    19    20    1
    13    20    21    1
    14    21    22    1
    15    21    23    1
    16     2     3   ar
    17     3     4   ar
    18     4     5   ar
    19     5     6   ar
    20     6     7   ar
    21     7     8   ar
    22     8     9   ar
    23    17    12   ar
    24     9     1   ar
    25     9     4   ar
@<TRIPOS>MOLECULE
*****
 23 25 0 0 0
SMALL
GASTEIGER

@<TRIPOS>ATOM
      1 C          62.8740   86.0446   12.0373 C.ar    1  UNL1       -0.0143
      2 C          63.5427   86.7518   13.1787 C.ar    1  UNL1        0.0051
      3 S          64.0525   85.7127   14.1328 S.2     1  UNL1       -0.0915
      4 C          63.6990   84.3634   13.5811 C.ar    1  UNL1        0.0288
      5 C          63.9462   82.9745   14.0907 C.ar    1  UNL1        0.0065
      6 C          63.4651   81.7907   13.3052 C.ar    1  UNL1        0.0005
      7 C          62.7367   81.9958   12.0101 C.ar    1  UNL1        0.0000
      8 C          62.4895   83.3847   11.5004 C.ar    1  UNL1        0.0002
      9 C          62.9706   84.5685   12.2860 C.ar    1  UNL1        0.0025
     10 C          62.4162   86.1276    9.4811 C.3     1  UNL1        0.0111
     11 C          62.2230   86.6987   10.8547 C.3     1  UNL1        0.0649
     12 C          61.3789   87.9237   11.0456 C.ar    1  UNL1        0.0900
     13 N          60.0957   87.8376   11.8177 N.ar    1  UNL1       -0.2456
     14 C          59.2515   89.0627   12.0087 C.ar    1  UNL1        0.0986
     15 C          59.6905   90.3740   11.4274 C.ar    1  UNL1        0.0230
     16 C          60.9736   90.4602   10.6554 C.ar    1  UNL1        0.0325
     17 C          61.8178   89.2351   10.4644 C.ar    1  UNL1        0.1539
     18 F          63.1009   89.3213    9.6923 F       1  UNL1       -0.2029
     19 C          63.6777   88.2372   13.3380 C.3     1  UNL1        0.0499
     20 C          64.4965   88.7996   14.4619 C.3     1  UNL1        0.0774
     21 N          63.8253   89.5341   15.5843 N.3     1  UNL1       -0.2700
     22 C          63.9167   91.0294   15.6626 C.3     1  UNL1        0.0897
     23 C          63.0628   88.7736   16.6283 C.3     1  UNL1        0.0897
@<TRIPOS>BOND
     1    11    10    1
     2    11    12    1
     3    12    13   ar
     4    13    14   ar
     5    14    15   ar
     6    15    16   ar
     7    16    17   ar
     8    17    18    1
     9    11     1    1
    10     1     2   ar
    11     2    19    1
    12    19    20    1
    13    20    21    1
    14    21    22    1
    15    21    23    1
    16     2     3   ar
    17     3     4   ar
    18     4     5   ar
    19     5     6   ar
    20     6     7   ar
    21     7     8   ar
    22     8     9   ar
    23    17    12   ar
    24     9     1   ar
    25     9     4   ar
@<TRIPOS>MOLECULE
*****
 23 25 0 0 0
SMALL
GASTEIGER

@<TRIPOS>ATOM
      1 C          63.4007   85.8870   12.8620 C.ar    1  UNL1       -0.0143
      2 C          63.9193   85.1774   14.0775 C.ar    1  UNL1        0.0051
      3 S          64.4078   86.2135   15.0459 S.2     1  UNL1       -0.0915
      4 C          64.1912   87.5634   14.4290 C.ar    1  UNL1        0.0288
      5 C          64.4802   88.9503   14.9218 C.ar    1  UNL1        0.0065
      6 C          64.1469   90.1354   14.0650 C.ar    1  UNL1        0.0005
      7 C          63.5244   89.9337   12.7152 C.ar    1  UNL1        0.0000
      8 C          63.2354   88.5468   12.2223 C.ar    1  UNL1        0.0002
      9 C          63.5687   87.3617   13.0792 C.ar    1  UNL1        0.0025
     10 C          63.1251   83.8001   11.3391 C.3     1  UNL1        0.0111
     11 C          62.8166   85.2363   11.6432 C.3     1  UNL1        0.0649
     12 C          61.9242   86.0216   10.7285 C.ar    1  UNL1        0.0900
     13 N          60.8163   86.8578   11.2974 N.ar    1  UNL1       -0.2456
     14 C          59.9238   87.6431   10.3828 C.ar    1  UNL1        0.0986
     15 C          60.1391   87.5922    8.8991 C.ar    1  UNL1        0.0230
     16 C          61.2468   86.7561    8.3303 C.ar    1  UNL1        0.0325
     17 C          62.1394   85.9708    9.2449 C.ar    1  UNL1        0.1539
     18 F          63.2471   85.1346    8.6760 F       1  UNL1       -0.2029
     19 C          63.9449   83.6924   14.2876 C.3     1  UNL1        0.0499
     20 C          62.6978   82.9729   14.7083 C.3     1  UNL1        0.0774
     21 N          62.4181   81.5925   14.1923 N.3     1  UNL1       -0.2700
     22 C          63.5410   80.7438   13.6736 C.3     1  UNL1        0.0897
     23 C          61.0155   81.0607   14.1951 C.3     1  UNL1        0.0897
@<TRIPOS>BOND
     1    11    10    1
     2    11    12    1
     3    12    13   ar
     4    13    14   ar
     5    14    15   ar
     6    15    16   ar
     7    16    17   ar
     8    17    18    1
     9    11     1    1
    10     1     2   ar
    11     2    19    1
    12    19    20    1
    13    20    21    1
    14    21    22    1
    15    21    23    1
    16     2     3   ar
    17     3     4   ar
    18     4     5   ar
    19     5     6   ar
    20     6     7   ar
    21     7     8   ar
    22     8     9   ar
    23    17    12   ar
    24     9     1   ar
    25     9     4   ar
@<TRIPOS>MOLECULE
*****
 23 25 0 0 0
SMALL
GASTEIGER

@<TRIPOS>ATOM
      1 C          62.8114   85.3202   11.2532 C.ar    1  UNL1       -0.0143
      2 C          63.1401   86.2761   12.3614 C.ar    1  UNL1        0.0051
      3 S          62.4564   87.5786   12.0680 S.2     1  UNL1       -0.0915
      4 C          61.7051   87.4276   10.7785 C.ar    1  UNL1        0.0288
      5 C          60.8496   88.3808    9.9979 C.ar    1  UNL1        0.0065
      6 C          60.2135   87.9382    8.7136 C.ar    1  UNL1        0.0005
      7 C          60.4329   86.5424    8.2100 C.ar    1  UNL1        0.0000
      8 C          61.2884   85.5892    8.9906 C.ar    1  UNL1        0.0002
      9 C          61.9245   86.0318   10.2749 C.ar    1  UNL1        0.0025
     10 C          64.1967   83.5008   10.0199 C.3     1  UNL1        0.0111
     11 C          63.2861   83.9016   11.1426 C.3     1  UNL1        0.0649
     12 C          62.8505   82.8838   12.1546 C.ar    1  UNL1        0.0900
     13 N          62.4728   83.3176   13.5400 N.ar    1  UNL1       -0.2456
     14 C          62.0371   82.2999   14.5521 C.ar    1  UNL1        0.0986
     15 C          61.9791   80.8482   14.1787 C.ar    1  UNL1        0.0230
     16 C          62.3567   80.4144   12.7934 C.ar    1  UNL1        0.0325
     17 C          62.7924   81.4321   11.7813 C.ar    1  UNL1        0.1539
     18 F          63.1700   80.9982   10.3960 F       1  UNL1       -0.2029
     19 C          64.0013   85.9813   13.5536 C.3     1  UNL1        0.0499
     20 C          64.2810   87.0568   14.5611 C.3     1  UNL1        0.0774
     21 N          63.5751   87.0466   15.8846 N.3     1  UNL1       -0.2700
     22 C          63.2268   85.7424   16.5388 C.3     1  UNL1        0.0897
     23 C          63.2175   88.3405   16.5538 C.3     1  UNL1        0.0897
@<TRIPOS>BOND
     1    11    10    1
     2    11    12    1
     3    12    13   ar
     4    13    14   ar
     5    14    15   ar
     6    15    16   ar
     7    16    17   ar
     8    17    18    1
     9    11     1    1
    10     1     2   ar
    11     2    19    1
    12    19    20    1
    13    20    21    1
    14    21    22    1
    15    21    23    1
    16     2     3   ar
    17     3     4   ar
    18     4     5   ar
    19     5     6   ar
    20     6     7   ar
    21     7     8   ar
    22     8     9   ar
    23    17    12   ar
    24     9     1   ar
    25     9     4   ar
@<TRIPOS>MOLECULE
*****
 23 25 0 0 0
SMALL
GASTEIGER

@<TRIPOS>ATOM
      1 C          63.4939   87.0008   13.1250 C.ar    1  UNL1       -0.0143
      2 C          62.6588   86.9689   11.8794 C.ar    1  UNL1        0.0051
      3 S          62.5018   88.3782   11.3903 S.2     1  UNL1       -0.0915
      4 C          63.2400   89.2811   12.3337 C.ar    1  UNL1        0.0288
      5 C          63.4329   90.7685   12.3549 C.ar    1  UNL1        0.0065
      6 C          64.2391   91.4046   13.4483 C.ar    1  UNL1        0.0005
      7 C          64.8523   90.5533   14.5204 C.ar    1  UNL1        0.0000
      8 C          64.6593   89.0659   14.4991 C.ar    1  UNL1        0.0002
      9 C          63.8531   88.4299   13.4058 C.ar    1  UNL1        0.0025
     10 C          64.5735   86.0107   15.2708 C.3     1  UNL1        0.0111
     11 C          63.8988   85.8124   13.9457 C.3     1  UNL1        0.0649
     12 C          63.6292   84.4257   13.4416 C.ar    1  UNL1        0.0900
     13 N          64.4799   83.8455   12.3508 N.ar    1  UNL1       -0.2456
     14 C          64.2103   82.4588   11.8466 C.ar    1  UNL1        0.0986
     15 C          63.0899   81.6521   12.4332 C.ar    1  UNL1        0.0230
     16 C          62.2392   82.2322   13.5240 C.ar    1  UNL1        0.0325
     17 C          62.5088   83.6190   14.0282 C.ar    1  UNL1        0.1539
     18 F          61.6581   84.1990   15.1189 F       1  UNL1       -0.2029
     19 C          62.0819   85.7429   11.2358 C.3     1  UNL1        0.0499
     20 C          61.0743   85.8783   10.1330 C.3     1  UNL1        0.0774
     21 N          61.5128   85.7892    8.7013 N.3     1  UNL1       -0.2700
     22 C          62.9372   85.4528    8.3727 C.3     1  UNL1        0.0897
     23 C          60.5269   86.0364    7.5982 C.3     1  UNL1        0.0897
@<TRIPOS>BOND
     1    11    10    1
     2    11    12    1
     3    12    13   ar
     4    13    14   ar
     5    14    15   ar
     6    15    16   ar
     7    16    17   ar
     8    17    18    1
     9    11     1    1
    10     1     2   ar
    11     2    19    1
    12    19    20    1
    13    20    21    1
    14    21    22    1
    15    21    23    1
    16     2     3   ar
    17     3     4   ar
    18     4     5   ar
    19     5     6   ar
    20     6     7   ar
    21     7     8   ar
    22     8     9   ar
    23    17    12   ar
    24     9     1   ar
    25     9     4   ar
