@<TRIPOS>MOLECULE
*****
 38 42 0 0 0
SMALL
GASTEIGER

@<TRIPOS>ATOM
      1 C          63.4974   88.0446   15.5143 C.3     1  UNL1        0.2246
      2 C          63.6235   86.5649   15.3031 C.2     1  UNL1        0.0436
      3 C          63.3891   85.6216   16.4457 C.2     1  UNL1        0.0288
      4 C          63.0287   86.1579   17.7993 C.2     1  UNL1        0.0896
      5 N          62.9027   87.6376   18.0105 N.am    1  UNL1       -0.1770
      6 C          63.1370   88.5809   16.8680 C.2     1  UNL1        0.2627
      7 O          63.0109   90.0606   17.0792 O.2     1  UNL1       -0.2719
      8 C          61.9779   90.0480   10.1513 C.3     1  UNL1        0.0312
      9 C          63.1365   90.6522   10.8879 C.2     1  UNL1        0.0136
     10 C          63.9187   91.7712   10.2667 C.2     1  UNL1        0.0107
     11 C          65.0773   92.3754   11.0032 C.2     1  UNL1        0.0509
     12 C          65.4538   91.8606   12.3609 C.2     1  UNL1        0.0613
     13 C          64.6716   90.7416   12.9820 C.2     1  UNL1        0.2246
     14 N          64.8068   90.0312   14.2962 N.2     1  UNL1       -0.0378
     15 C          63.7317   88.9879   14.3719 C.2     1  UNL1        0.3605
     16 N          62.9320   89.0535   13.1045 N.2     1  UNL1       -0.0547
     17 C          63.5129   90.1374   12.2455 C.3     1  UNL1        0.2976
     18 N          65.8596   93.4946   10.3820 N.pl3   1  UNL1       -0.3073
     19 C          65.3560   94.9043   10.4766 C.3     1  UNL1        0.0933
     20 C          66.1383   96.0234    9.8554 C.3     1  UNL1        0.0507
     21 C          67.4240   95.7327    9.1397 C.3     1  UNL1        0.1139
     22 O          68.2063   96.8516    8.5186 O.3     1  UNL1       -0.3843
     23 C          67.9276   94.3229    9.0452 C.3     1  UNL1        0.0507
     24 C          67.1454   93.2038    9.6663 C.3     1  UNL1        0.0933
     25 H          69.0048   96.4942    8.0995 H       1  UNL1        0.2103
     26 N          63.9839   86.0284   13.9495 N.pl3   1  UNL1       -0.3329
     27 H          64.7093   86.4464   13.4316 H       1  UNL1        0.1466
     28 C          63.2391   84.8552   13.3850 C.3     1  UNL1        0.1211
     29 C          63.6117   84.3073   12.0393 C.3     1  UNL1        0.1522
     30 O          64.6345   83.2154   11.9311 O.3     1  UNL1       -0.3783
     31 H          64.9526   82.9814   12.8170 H       1  UNL1        0.2109
     32 C          62.9615   84.8513   10.8019 C.ar    1  UNL1        0.0067
     33 C          63.4773   84.4588    9.4492 C.ar    1  UNL1       -0.0018
     34 C          62.8271   85.0028    8.2117 C.ar    1  UNL1        0.0006
     35 C          61.6610   85.9393    8.3269 C.ar    1  UNL1        0.0114
     36 C          61.1453   86.3318    9.6797 C.ar    1  UNL1        0.0574
     37 CL         59.9792   87.2684    9.7949 Cl      1  UNL1       -0.0823
     38 C          61.7955   85.7878   10.9171 C.ar    1  UNL1        0.0095
@<TRIPOS>BOND
     1     8     9    1
     2     9    10    2
     3    10    11    1
     4    11    18    1
     5    18    19    1
     6    19    20    1
     7    20    21    1
     8    21    22    1
     9    21    23    1
    10    23    24    1
    11    11    12    2
    12    12    13    1
    13    13    14    2
    14    14    15    1
    15    15     1    1
    16     1     2    1
    17     2    26    1
    18    26    28    1
    19    28    29    1
    20    29    30    1
    21    29    32    1
    22    32    33   ar
    23    33    34   ar
    24    34    35   ar
    25    35    36   ar
    26    36    37    1
    27    36    38   ar
    28     2     3    2
    29     3     4    1
    30     4     5    2
    31     5     6    1
    32     6     7    2
    33    15    16    2
    34    16    17    1
    35    17     9    1
    36    24    18    1
    37    17    13    1
    38     6     1    1
    39    38    32   ar
    40    22    25    1
    41    26    27    1
    42    30    31    1
@<TRIPOS>MOLECULE
*****
 38 42 0 0 0
SMALL
GASTEIGER

@<TRIPOS>ATOM
      1 C          61.2145   87.9645    9.8978 C.3     1  UNL1        0.2246
      2 C          61.0951   86.4943    9.6249 C.2     1  UNL1        0.0436
      3 C          60.1551   86.0023    8.5646 C.2     1  UNL1        0.0288
      4 C          59.3345   86.9803    7.7771 C.2     1  UNL1        0.0896
      5 N          59.4538   88.4504    8.0500 N.am    1  UNL1       -0.1770
      6 C          60.3938   88.9425    9.1103 C.2     1  UNL1        0.2627
      7 O          60.5132   90.4126    9.3832 O.2     1  UNL1       -0.2719
      8 C          63.9797   87.1138   15.0664 C.3     1  UNL1        0.0312
      9 C          64.1973   88.3770   14.2872 C.2     1  UNL1        0.0136
     10 C          65.1202   89.4347   14.8158 C.2     1  UNL1        0.0107
     11 C          65.3378   90.6978   14.0367 C.2     1  UNL1        0.0509
     12 C          64.6325   90.9032   12.7287 C.2     1  UNL1        0.0613
     13 C          63.7097   89.8455   12.2001 C.2     1  UNL1        0.2246
     14 N          62.8830   89.7678   10.9509 N.2     1  UNL1       -0.0378
     15 C          62.1544   88.4566   10.9581 C.2     1  UNL1        0.3605
     16 N          62.5309   87.7240   12.2117 N.2     1  UNL1       -0.0547
     17 C          63.4921   88.5823   12.9793 C.3     1  UNL1        0.2976
     18 N          66.2607   91.7556   14.5653 N.pl3   1  UNL1       -0.3073
     19 C          66.1315   93.1712   14.0864 C.3     1  UNL1        0.0933
     20 C          67.0543   94.2290   14.6151 C.3     1  UNL1        0.0507
     21 C          68.1063   93.8711   15.6226 C.3     1  UNL1        0.1139
     22 O          69.0292   94.9288   16.1513 O.3     1  UNL1       -0.3843
     23 C          68.2355   92.4555   16.1015 C.3     1  UNL1        0.0507
     24 C          67.3127   91.3978   15.5729 C.3     1  UNL1        0.0933
     25 H          69.6439   94.5325   16.7885 H       1  UNL1        0.2103
     26 N          61.9157   85.5163   10.4123 N.pl3   1  UNL1       -0.3329
     27 H          61.7020   85.3431   11.3576 H       1  UNL1        0.1466
     28 C          63.0619   84.8021    9.7595 C.3     1  UNL1        0.1211
     29 C          63.6958   83.6241   10.4380 C.3     1  UNL1        0.1522
     30 O          64.6478   82.7457    9.6817 O.3     1  UNL1       -0.3783
     31 H          64.7418   83.0764    8.7747 H       1  UNL1        0.2109
     32 C          63.3777   83.3245   11.8730 C.ar    1  UNL1        0.0067
     33 C          64.0140   84.1305   12.9663 C.ar    1  UNL1       -0.0018
     34 C          63.6960   83.8310   14.4013 C.ar    1  UNL1        0.0006
     35 C          62.7415   82.7254   14.7429 C.ar    1  UNL1        0.0114
     36 C          62.1052   81.9194   13.6496 C.ar    1  UNL1        0.0574
     37 CL         61.1508   80.8138   13.9912 Cl      1  UNL1       -0.0823
     38 C          62.4233   82.2189   12.2146 C.ar    1  UNL1        0.0095
@<TRIPOS>BOND
     1     8     9    1
     2     9    10    2
     3    10    11    1
     4    11    18    1
     5    18    19    1
     6    19    20    1
     7    20    21    1
     8    21    22    1
     9    21    23    1
    10    23    24    1
    11    11    12    2
    12    12    13    1
    13    13    14    2
    14    14    15    1
    15    15     1    1
    16     1     2    1
    17     2    26    1
    18    26    28    1
    19    28    29    1
    20    29    30    1
    21    29    32    1
    22    32    33   ar
    23    33    34   ar
    24    34    35   ar
    25    35    36   ar
    26    36    37    1
    27    36    38   ar
    28     2     3    2
    29     3     4    1
    30     4     5    2
    31     5     6    1
    32     6     7    2
    33    15    16    2
    34    16    17    1
    35    17     9    1
    36    24    18    1
    37    17    13    1
    38     6     1    1
    39    38    32   ar
    40    22    25    1
    41    26    27    1
    42    30    31    1
@<TRIPOS>MOLECULE
*****
 38 42 0 0 0
SMALL
GASTEIGER

@<TRIPOS>ATOM
      1 C          64.7519   90.8981   14.7427 C.3     1  UNL1        0.2246
      2 C          65.7182   91.8039   14.0385 C.2     1  UNL1        0.0436
      3 C          66.2030   93.0530   14.7129 C.2     1  UNL1        0.0288
      4 C          65.7215   93.3963   16.0914 C.2     1  UNL1        0.0896
      5 N          64.7553   92.4906   16.7956 N.am    1  UNL1       -0.1770
      6 C          64.2705   91.2415   16.1212 C.2     1  UNL1        0.2627
      7 O          63.3042   90.3357   16.8254 O.2     1  UNL1       -0.2719
      8 C          61.8582   88.2999   10.2750 C.3     1  UNL1        0.0312
      9 C          62.4797   87.4725   11.3609 C.2     1  UNL1        0.0136
     10 C          62.3706   85.9771   11.3199 C.2     1  UNL1        0.0107
     11 C          62.9920   85.1497   12.4057 C.2     1  UNL1        0.0509
     12 C          63.7227   85.8177   13.5327 C.2     1  UNL1        0.0613
     13 C          63.8318   87.3132   13.5737 C.2     1  UNL1        0.2246
     14 N          64.4849   88.2454   14.5506 N.2     1  UNL1       -0.0378
     15 C          64.2671   89.6490   14.0684 C.2     1  UNL1        0.3605
     16 N          63.4794   89.5842   12.7935 N.2     1  UNL1       -0.0547
     17 C          63.2103   88.1406   12.4878 C.3     1  UNL1        0.2976
     18 N          62.8829   83.6542   12.3647 N.pl3   1  UNL1       -0.3073
     19 C          62.4234   82.9021   13.5785 C.3     1  UNL1        0.0933
     20 C          62.3143   81.4067   13.5375 C.3     1  UNL1        0.0507
     21 C          62.6646   80.6633   12.2826 C.3     1  UNL1        0.1139
     22 O          62.5555   79.1678   12.2415 O.3     1  UNL1       -0.3843
     23 C          63.1241   81.4153   11.0688 C.3     1  UNL1        0.0507
     24 C          63.2332   82.9107   11.1098 C.3     1  UNL1        0.0933
     25 H          62.8170   78.8486   11.3637 H       1  UNL1        0.2103
     26 N          66.1997   91.4606   12.6600 N.pl3   1  UNL1       -0.3329
     27 H          65.6817   90.8400   12.0980 H       1  UNL1        0.1466
     28 C          67.4704   92.0627   12.1378 C.3     1  UNL1        0.1211
     29 C          67.5212   92.6150   10.7441 C.3     1  UNL1        0.1522
     30 O          68.0051   91.7556    9.6139 O.3     1  UNL1       -0.3783
     31 H          68.2440   90.8790    9.9537 H       1  UNL1        0.2109
     32 C          67.0880   94.0267   10.4805 C.ar    1  UNL1        0.0067
     33 C          66.2540   94.7565   11.4913 C.ar    1  UNL1       -0.0018
     34 C          65.8208   96.1682   11.2278 C.ar    1  UNL1        0.0006
     35 C          66.2217   96.8502    9.9534 C.ar    1  UNL1        0.0114
     36 C          67.0557   96.1204    8.9426 C.ar    1  UNL1        0.0574
     37 CL         67.4566   96.8024    7.6681 Cl      1  UNL1       -0.0823
     38 C          67.4889   94.7087    9.2061 C.ar    1  UNL1        0.0095
@<TRIPOS>BOND
     1     8     9    1
     2     9    10    2
     3    10    11    1
     4    11    18    1
     5    18    19    1
     6    19    20    1
     7    20    21    1
     8    21    22    1
     9    21    23    1
    10    23    24    1
    11    11    12    2
    12    12    13    1
    13    13    14    2
    14    14    15    1
    15    15     1    1
    16     1     2    1
    17     2    26    1
    18    26    28    1
    19    28    29    1
    20    29    30    1
    21    29    32    1
    22    32    33   ar
    23    33    34   ar
    24    34    35   ar
    25    35    36   ar
    26    36    37    1
    27    36    38   ar
    28     2     3    2
    29     3     4    1
    30     4     5    2
    31     5     6    1
    32     6     7    2
    33    15    16    2
    34    16    17    1
    35    17     9    1
    36    24    18    1
    37    17    13    1
    38     6     1    1
    39    38    32   ar
    40    22    25    1
    41    26    27    1
    42    30    31    1
@<TRIPOS>MOLECULE
*****
 38 42 0 0 0
SMALL
GASTEIGER

@<TRIPOS>ATOM
      1 C          65.1185   91.5207   13.5256 C.3     1  UNL1        0.2246
      2 C          64.9189   91.9709   12.1088 C.2     1  UNL1        0.0436
      3 C          65.3633   93.3402   11.6873 C.2     1  UNL1        0.0288
      4 C          66.0071   94.2593   12.6827 C.2     1  UNL1        0.0896
      5 N          66.2067   93.8091   14.0995 N.am    1  UNL1       -0.1770
      6 C          65.7623   92.4398   14.5209 C.2     1  UNL1        0.2627
      7 O          65.9619   91.9896   15.9378 O.2     1  UNL1       -0.2719
      8 C          63.0453   87.8903   17.7216 C.3     1  UNL1        0.0312
      9 C          63.3255   87.3744   16.3413 C.2     1  UNL1        0.0136
     10 C          63.0808   85.9307   16.0161 C.2     1  UNL1        0.0107
     11 C          63.3609   85.4149   14.6358 C.2     1  UNL1        0.0509
     12 C          63.8858   86.3427   13.5805 C.2     1  UNL1        0.0613
     13 C          64.1305   87.7865   13.9056 C.2     1  UNL1        0.2246
     14 N          64.6396   88.9293   13.0782 N.2     1  UNL1       -0.0378
     15 C          64.6741   90.1514   13.9471 C.2     1  UNL1        0.3605
     16 N          64.1863   89.7640   15.3117 N.2     1  UNL1       -0.0547
     17 C          63.8503   88.3023   15.2860 C.3     1  UNL1        0.2976
     18 N          63.1162   83.9710   14.3107 N.pl3   1  UNL1       -0.3073
     19 C          61.9293   83.2620   14.8925 C.3     1  UNL1        0.0933
     20 C          61.6845   81.8182   14.5674 C.3     1  UNL1        0.0507
     21 C          62.6267   81.0836   13.6605 C.3     1  UNL1        0.1139
     22 O          62.3820   79.6399   13.3353 O.3     1  UNL1       -0.3843
     23 C          63.8136   81.7926   13.0786 C.3     1  UNL1        0.0507
     24 C          64.0583   83.2364   13.4037 C.3     1  UNL1        0.0933
     25 H          63.0787   79.3197   12.7412 H       1  UNL1        0.2103
     26 N          64.2750   91.0519   11.1134 N.pl3   1  UNL1       -0.3329
     27 H          64.8245   90.4081   10.6106 H       1  UNL1        0.1466
     28 C          62.7940   91.1138   10.8840 C.3     1  UNL1        0.1211
     29 C          61.9182   89.9800   11.3283 C.3     1  UNL1        0.1522
     30 O          61.4649   89.8973   12.7557 O.3     1  UNL1       -0.3783
     31 H          61.8241   90.6486   13.2531 H       1  UNL1        0.2109
     32 C          61.4958   88.9288   10.3451 C.ar    1  UNL1        0.0067
     33 C          60.2257   89.0982    9.5653 C.ar    1  UNL1       -0.0018
     34 C          59.8033   88.0470    8.5822 C.ar    1  UNL1        0.0006
     35 C          60.6511   86.8264    8.3788 C.ar    1  UNL1        0.0114
     36 C          61.9212   86.6570    9.1585 C.ar    1  UNL1        0.0574
     37 CL         62.7689   85.4363    8.9551 Cl      1  UNL1       -0.0823
     38 C          62.3436   87.7081   10.1417 C.ar    1  UNL1        0.0095
@<TRIPOS>BOND
     1     8     9    1
     2     9    10    2
     3    10    11    1
     4    11    18    1
     5    18    19    1
     6    19    20    1
     7    20    21    1
     8    21    22    1
     9    21    23    1
    10    23    24    1
    11    11    12    2
    12    12    13    1
    13    13    14    2
    14    14    15    1
    15    15     1    1
    16     1     2    1
    17     2    26    1
    18    26    28    1
    19    28    29    1
    20    29    30    1
    21    29    32    1
    22    32    33   ar
    23    33    34   ar
    24    34    35   ar
    25    35    36   ar
    26    36    37    1
    27    36    38   ar
    28     2     3    2
    29     3     4    1
    30     4     5    2
    31     5     6    1
    32     6     7    2
    33    15    16    2
    34    16    17    1
    35    17     9    1
    36    24    18    1
    37    17    13    1
    38     6     1    1
    39    38    32   ar
    40    22    25    1
    41    26    27    1
    42    30    31    1
@<TRIPOS>MOLECULE
*****
 38 42 0 0 0
SMALL
GASTEIGER

@<TRIPOS>ATOM
      1 C          63.5638   87.8668   15.3401 C.3     1  UNL1        0.2246
      2 C          63.4003   86.6743   14.4450 C.2     1  UNL1        0.0436
      3 C          62.7833   85.4153   14.9783 C.2     1  UNL1        0.0288
      4 C          62.3299   85.3488   16.4066 C.2     1  UNL1        0.0896
      5 N          62.4933   86.5414   17.3016 N.am    1  UNL1       -0.1770
      6 C          63.1103   87.8004   16.7683 C.2     1  UNL1        0.2627
      7 O          63.2738   88.9929   17.6634 O.2     1  UNL1       -0.2719
      8 C          66.7397   92.7825   16.2539 C.3     1  UNL1        0.0312
      9 C          66.2021   92.4680   14.8893 C.2     1  UNL1        0.0136
     10 C          66.4676   93.4011   13.7453 C.2     1  UNL1        0.0107
     11 C          65.9300   93.0866   12.3807 C.2     1  UNL1        0.0509
     12 C          65.1269   91.8390   12.1601 C.2     1  UNL1        0.0613
     13 C          64.8614   90.9060   13.3042 C.2     1  UNL1        0.2246
     14 N          64.1085   89.6114   13.3895 N.2     1  UNL1       -0.0378
     15 C          64.1808   89.1258   14.8069 C.2     1  UNL1        0.3605
     16 N          64.9783   90.1202   15.5975 N.2     1  UNL1       -0.0547
     17 C          65.3990   91.2204   14.6688 C.3     1  UNL1        0.2976
     18 N          66.1956   94.0198   11.2366 N.pl3   1  UNL1       -0.3073
     19 C          66.7442   93.4871    9.9462 C.3     1  UNL1        0.0933
     20 C          67.0097   94.4202    8.8021 C.3     1  UNL1        0.0507
     21 C          66.7266   95.8859    8.9485 C.3     1  UNL1        0.1139
     22 O          66.9921   96.8190    7.8046 O.3     1  UNL1       -0.3843
     23 C          66.1780   96.4186   10.2390 C.3     1  UNL1        0.0507
     24 C          65.9124   95.4855   11.3830 C.3     1  UNL1        0.0933
     25 H          66.7565   97.7236    8.0638 H       1  UNL1        0.2103
     26 N          63.8538   86.7407   13.0168 N.pl3   1  UNL1       -0.3329
     27 H          64.7537   87.0765   12.8012 H       1  UNL1        0.1466
     28 C          62.9360   86.2954   11.9170 C.3     1  UNL1        0.1211
     29 C          62.3362   87.3064   10.9853 C.3     1  UNL1        0.1522
     30 O          62.4967   88.7715   11.2643 O.3     1  UNL1       -0.3783
     31 H          63.0100   88.8912   12.0786 H       1  UNL1        0.2109
     32 C          61.5760   86.8524    9.7746 C.ar    1  UNL1        0.0067
     33 C          60.1490   87.2732    9.5835 C.ar    1  UNL1       -0.0018
     34 C          59.3888   86.8192    8.3728 C.ar    1  UNL1        0.0006
     35 C          60.0556   85.9442    7.3531 C.ar    1  UNL1        0.0114
     36 C          61.4826   85.5233    7.5441 C.ar    1  UNL1        0.0574
     37 CL         62.1493   84.6483    6.5244 Cl      1  UNL1       -0.0823
     38 C          62.2428   85.9774    8.7549 C.ar    1  UNL1        0.0095
@<TRIPOS>BOND
     1     8     9    1
     2     9    10    2
     3    10    11    1
     4    11    18    1
     5    18    19    1
     6    19    20    1
     7    20    21    1
     8    21    22    1
     9    21    23    1
    10    23    24    1
    11    11    12    2
    12    12    13    1
    13    13    14    2
    14    14    15    1
    15    15     1    1
    16     1     2    1
    17     2    26    1
    18    26    28    1
    19    28    29    1
    20    29    30    1
    21    29    32    1
    22    32    33   ar
    23    33    34   ar
    24    34    35   ar
    25    35    36   ar
    26    36    37    1
    27    36    38   ar
    28     2     3    2
    29     3     4    1
    30     4     5    2
    31     5     6    1
    32     6     7    2
    33    15    16    2
    34    16    17    1
    35    17     9    1
    36    24    18    1
    37    17    13    1
    38     6     1    1
    39    38    32   ar
    40    22    25    1
    41    26    27    1
    42    30    31    1
@<TRIPOS>MOLECULE
*****
 38 42 0 0 0
SMALL
GASTEIGER

@<TRIPOS>ATOM
      1 C          63.1496   83.4512   13.5940 C.3     1  UNL1        0.2246
      2 C          62.5841   83.1279   12.2429 C.2     1  UNL1        0.0436
      3 C          62.3304   81.7004   11.8581 C.2     1  UNL1        0.0288
      4 C          62.6422   80.5963   12.8243 C.2     1  UNL1        0.0896
      5 N          63.2077   80.9196   14.1755 N.am    1  UNL1       -0.1770
      6 C          63.4614   82.3471   14.5603 C.2     1  UNL1        0.2627
      7 O          64.0270   82.6704   15.9115 O.2     1  UNL1       -0.2719
      8 C          62.7900   87.8030   17.5962 C.3     1  UNL1        0.0312
      9 C          63.4018   88.0571   16.2504 C.2     1  UNL1        0.0136
     10 C          63.9274   89.4204   15.9108 C.2     1  UNL1        0.0107
     11 C          64.5391   89.6745   14.5651 C.2     1  UNL1        0.0509
     12 C          64.6253   88.5654   13.5588 C.2     1  UNL1        0.0613
     13 C          64.0997   87.2022   13.8983 C.2     1  UNL1        0.2246
     14 N          64.0474   85.9232   13.1164 N.2     1  UNL1       -0.0378
     15 C          63.4034   84.8786   13.9789 C.2     1  UNL1        0.3605
     16 N          63.0576   85.5120   15.2940 N.2     1  UNL1       -0.0547
     17 C          63.4879   86.9481   15.2441 C.3     1  UNL1        0.2976
     18 N          65.0648   91.0378   14.2255 N.pl3   1  UNL1       -0.3073
     19 C          64.8990   91.5811   12.8372 C.3     1  UNL1        0.0933
     20 C          65.4246   92.9444   12.4976 C.3     1  UNL1        0.0507
     21 C          66.1160   93.7643   13.5463 C.3     1  UNL1        0.1139
     22 O          66.6416   95.1275   13.2068 O.3     1  UNL1       -0.3843
     23 C          66.2817   93.2209   14.9346 C.3     1  UNL1        0.0507
     24 C          65.7561   91.8577   15.2742 C.3     1  UNL1        0.0933
     25 H          67.0566   95.5186   13.9915 H       1  UNL1        0.2103
     26 N          62.2722   84.2319   11.2766 N.pl3   1  UNL1       -0.3329
     27 H          61.4688   84.7863   11.4051 H       1  UNL1        0.1466
     28 C          63.1844   84.4915   10.1144 C.3     1  UNL1        0.1211
     29 C          62.6724   85.2198    8.9072 C.3     1  UNL1        0.1522
     30 O          62.9664   84.6941    7.5335 O.3     1  UNL1       -0.3783
     31 H          63.4937   83.8830    7.6037 H       1  UNL1        0.2109
     32 C          61.8665   86.4739    9.0738 C.ar    1  UNL1        0.0067
     33 C          60.4796   86.5549    8.5081 C.ar    1  UNL1       -0.0018
     34 C          59.6737   87.8089    8.6747 C.ar    1  UNL1        0.0006
     35 C          60.2546   88.9821    9.4069 C.ar    1  UNL1        0.0114
     36 C          61.6415   88.9011    9.9726 C.ar    1  UNL1        0.0574
     37 CL         62.2224   90.0743   10.7049 Cl      1  UNL1       -0.0823
     38 C          62.4474   87.6471    9.8061 C.ar    1  UNL1        0.0095
@<TRIPOS>BOND
     1     8     9    1
     2     9    10    2
     3    10    11    1
     4    11    18    1
     5    18    19    1
     6    19    20    1
     7    20    21    1
     8    21    22    1
     9    21    23    1
    10    23    24    1
    11    11    12    2
    12    12    13    1
    13    13    14    2
    14    14    15    1
    15    15     1    1
    16     1     2    1
    17     2    26    1
    18    26    28    1
    19    28    29    1
    20    29    30    1
    21    29    32    1
    22    32    33   ar
    23    33    34   ar
    24    34    35   ar
    25    35    36   ar
    26    36    37    1
    27    36    38   ar
    28     2     3    2
    29     3     4    1
    30     4     5    2
    31     5     6    1
    32     6     7    2
    33    15    16    2
    34    16    17    1
    35    17     9    1
    36    24    18    1
    37    17    13    1
    38     6     1    1
    39    38    32   ar
    40    22    25    1
    41    26    27    1
    42    30    31    1
