@<TRIPOS>MOLECULE
*****
 22 24 0 0 0
SMALL
GASTEIGER

@<TRIPOS>ATOM
      1 N          62.7378   85.5132   12.9934 N.pl3   1  UNL1       -0.3279
      2 H          62.2840   85.6599   13.8546 H       1  UNL1        0.1472
      3 C          62.4046   86.3772   11.8133 C.ar    1  UNL1        0.0642
      4 C          61.7138   85.7845   10.6210 C.ar    1  UNL1        0.0159
      5 C          61.3806   86.6485    9.4410 C.ar    1  UNL1        0.0028
      6 C          61.7383   88.1052    9.4533 C.ar    1  UNL1        0.0188
      7 C          62.4290   88.6979   10.6455 C.ar    1  UNL1        0.0799
      8 C          62.7622   87.8339   11.8255 C.ar    1  UNL1        0.1113
      9 N          63.4409   88.6922   12.8516 N.ar    1  UNL1       -0.2297
     10 C          63.5271   90.0867   12.3057 C.ar    1  UNL1        0.1208
     11 C          64.1324   91.2699   13.0011 C.3     1  UNL1        0.0718
     12 N          62.9018   90.0902   10.9423 N.ar    1  UNL1       -0.3128
     13 C          62.7719   91.2775   10.0349 C.3     1  UNL1        0.1316
     14 C          63.7625   84.4257   12.8612 C.3     1  UNL1        0.1137
     15 C          64.0319   82.9064   10.2885 C.3     1  UNL1        0.0307
     16 C          63.4637   82.2319   11.5018 C.ar    1  UNL1       -0.0245
     17 C          63.0302   80.7978   11.4288 C.ar    1  UNL1       -0.0045
     18 C          62.4620   80.1233   12.6422 C.ar    1  UNL1       -0.0007
     19 C          62.3273   80.8830   13.9285 C.ar    1  UNL1       -0.0045
     20 C          62.7608   82.3171   14.0016 C.ar    1  UNL1       -0.0245
     21 C          62.6260   83.0768   15.2879 C.3     1  UNL1        0.0307
     22 C          63.3290   82.9916   12.7882 C.ar    1  UNL1       -0.0105
@<TRIPOS>BOND
     1    15    16    1
     2    16    17   ar
     3    17    18   ar
     4    18    19   ar
     5    19    20   ar
     6    20    21    1
     7    20    22   ar
     8    22    14    1
     9    14     1    1
    10     1     3    1
    11     3     4   ar
    12     4     5   ar
    13     5     6   ar
    14     6     7   ar
    15     7     8   ar
    16     8     9   ar
    17     9    10   ar
    18    10    11    1
    19    10    12   ar
    20    12    13    1
    21    22    16   ar
    22     8     3   ar
    23    12     7   ar
    24     1     2    1
@<TRIPOS>MOLECULE
*****
 22 24 0 0 0
SMALL
GASTEIGER

@<TRIPOS>ATOM
      1 N          62.7559   85.5241   12.9863 N.pl3   1  UNL1       -0.3279
      2 H          62.3246   85.6851   13.8565 H       1  UNL1        0.1472
      3 C          62.4079   86.3826   11.8065 C.ar    1  UNL1        0.0642
      4 C          61.7087   85.7828   10.6227 C.ar    1  UNL1        0.0159
      5 C          61.3608   86.6413    9.4430 C.ar    1  UNL1        0.0028
      6 C          61.7120   88.0996    9.4470 C.ar    1  UNL1        0.0188
      7 C          62.4111   88.6994   10.6308 C.ar    1  UNL1        0.0799
      8 C          62.7591   87.8409   11.8105 C.ar    1  UNL1        0.1113
      9 N          63.4434   88.7057   12.8274 N.ar    1  UNL1       -0.2297
     10 C          63.5183   90.0986   12.2760 C.ar    1  UNL1        0.1208
     11 C          64.1248   91.2869   12.9618 C.3     1  UNL1        0.0718
     12 N          62.8804   90.0948   10.9184 N.ar    1  UNL1       -0.3128
     13 C          62.7368   91.2784   10.0083 C.3     1  UNL1        0.1316
     14 C          63.7610   84.4203   12.8402 C.3     1  UNL1        0.1137
     15 C          62.5871   83.1685   15.3009 C.3     1  UNL1        0.0307
     16 C          62.7196   82.3653   14.0411 C.ar    1  UNL1       -0.0245
     17 C          62.2651   80.9360   14.0116 C.ar    1  UNL1       -0.0045
     18 C          62.3976   80.1327   12.7518 C.ar    1  UNL1       -0.0007
     19 C          62.9845   80.7586   11.5214 C.ar    1  UNL1       -0.0045
     20 C          63.4390   82.1878   11.5509 C.ar    1  UNL1       -0.0245
     21 C          64.0259   82.8136   10.3205 C.3     1  UNL1        0.0307
     22 C          63.3065   82.9911   12.8107 C.ar    1  UNL1       -0.0105
@<TRIPOS>BOND
     1    15    16    1
     2    16    17   ar
     3    17    18   ar
     4    18    19   ar
     5    19    20   ar
     6    20    21    1
     7    20    22   ar
     8    22    14    1
     9    14     1    1
    10     1     3    1
    11     3     4   ar
    12     4     5   ar
    13     5     6   ar
    14     6     7   ar
    15     7     8   ar
    16     8     9   ar
    17     9    10   ar
    18    10    11    1
    19    10    12   ar
    20    12    13    1
    21    22    16   ar
    22     8     3   ar
    23    12     7   ar
    24     1     2    1
@<TRIPOS>MOLECULE
*****
 22 24 0 0 0
SMALL
GASTEIGER

@<TRIPOS>ATOM
      1 N          62.8110   85.5972   12.4809 N.pl3   1  UNL1       -0.3279
      2 H          62.4728   86.1473   13.2241 H       1  UNL1        0.1472
      3 C          62.4066   85.9111   11.0709 C.ar    1  UNL1        0.0642
      4 C          62.8252   85.0050    9.9513 C.ar    1  UNL1        0.0159
      5 C          62.4209   85.3189    8.5414 C.ar    1  UNL1        0.0028
      6 C          61.5980   86.5390    8.2511 C.ar    1  UNL1        0.0188
      7 C          61.1794   87.4451    9.3708 C.ar    1  UNL1        0.0799
      8 C          61.5837   87.1312   10.7807 C.ar    1  UNL1        0.1113
      9 N          61.0270   88.2017   11.6719 N.ar    1  UNL1       -0.2297
     10 C          60.2786   89.1772   10.8127 C.ar    1  UNL1        0.1208
     11 C          59.5618   90.4048   11.2916 C.3     1  UNL1        0.0718
     12 N          60.3728   88.7096    9.3905 N.ar    1  UNL1       -0.3128
     13 C          59.7667   89.3875    8.1976 C.3     1  UNL1        0.1316
     14 C          63.7306   84.4451   12.7586 C.3     1  UNL1        0.1137
     15 C          62.1654   83.8443   15.2464 C.3     1  UNL1        0.0307
     16 C          62.3851   82.7716   14.2212 C.ar    1  UNL1       -0.0245
     17 C          61.8223   81.3985   14.4399 C.ar    1  UNL1       -0.0045
     18 C          62.0420   80.3258   13.4147 C.ar    1  UNL1       -0.0007
     19 C          62.8246   80.6263   12.1708 C.ar    1  UNL1       -0.0045
     20 C          63.3875   81.9993   11.9521 C.ar    1  UNL1       -0.0245
     21 C          64.1700   82.2997   10.7082 C.3     1  UNL1        0.0307
     22 C          63.1677   83.0721   12.9773 C.ar    1  UNL1       -0.0105
@<TRIPOS>BOND
     1    15    16    1
     2    16    17   ar
     3    17    18   ar
     4    18    19   ar
     5    19    20   ar
     6    20    21    1
     7    20    22   ar
     8    22    14    1
     9    14     1    1
    10     1     3    1
    11     3     4   ar
    12     4     5   ar
    13     5     6   ar
    14     6     7   ar
    15     7     8   ar
    16     8     9   ar
    17     9    10   ar
    18    10    11    1
    19    10    12   ar
    20    12    13    1
    21    22    16   ar
    22     8     3   ar
    23    12     7   ar
    24     1     2    1
@<TRIPOS>MOLECULE
*****
 22 24 0 0 0
SMALL
GASTEIGER

@<TRIPOS>ATOM
      1 N          63.5026   88.7920   13.1052 N.pl3   1  UNL1       -0.3279
      2 H          64.0823   88.5892   13.8746 H       1  UNL1        0.1472
      3 C          63.0036   87.6816   12.2287 C.ar    1  UNL1        0.0642
      4 C          62.3827   87.9961   10.9001 C.ar    1  UNL1        0.0159
      5 C          61.8837   86.8857   10.0237 C.ar    1  UNL1        0.0028
      6 C          62.0058   85.4607   10.4760 C.ar    1  UNL1        0.0188
      7 C          62.6268   85.1462   11.8047 C.ar    1  UNL1        0.0799
      8 C          63.1257   86.2566   12.6810 C.ar    1  UNL1        0.1113
      9 N          63.6879   85.6446   13.9299 N.ar    1  UNL1       -0.2297
     10 C          63.5364   84.1560   13.8253 C.ar    1  UNL1        0.1208
     11 C          63.9654   83.1516   14.8536 C.3     1  UNL1        0.0718
     12 N          62.8806   83.8479   12.5119 N.ar    1  UNL1       -0.3128
     13 C          62.5387   82.4815   11.9961 C.3     1  UNL1        0.1316
     14 C          63.1182   90.2114   12.8092 C.3     1  UNL1        0.1137
     15 C          63.2029   91.3370   10.0296 C.3     1  UNL1        0.0307
     16 C          64.2144   91.7745   11.0471 C.ar    1  UNL1       -0.0245
     17 C          65.2684   92.7749   10.6748 C.ar    1  UNL1       -0.0045
     18 C          66.2799   93.2124   11.6923 C.ar    1  UNL1       -0.0007
     19 C          66.2376   92.6497   13.0821 C.ar    1  UNL1       -0.0045
     20 C          65.1837   91.6493   13.4544 C.ar    1  UNL1       -0.0245
     21 C          65.1414   91.0866   14.8442 C.3     1  UNL1        0.0307
     22 C          64.1721   91.2117   12.4369 C.ar    1  UNL1       -0.0105
@<TRIPOS>BOND
     1    15    16    1
     2    16    17   ar
     3    17    18   ar
     4    18    19   ar
     5    19    20   ar
     6    20    21    1
     7    20    22   ar
     8    22    14    1
     9    14     1    1
    10     1     3    1
    11     3     4   ar
    12     4     5   ar
    13     5     6   ar
    14     6     7   ar
    15     7     8   ar
    16     8     9   ar
    17     9    10   ar
    18    10    11    1
    19    10    12   ar
    20    12    13    1
    21    22    16   ar
    22     8     3   ar
    23    12     7   ar
    24     1     2    1
@<TRIPOS>MOLECULE
*****
 22 24 0 0 0
SMALL
GASTEIGER

@<TRIPOS>ATOM
      1 N          63.5155   88.7831   13.0895 N.pl3   1  UNL1       -0.3279
      2 H          64.1084   88.5817   13.8492 H       1  UNL1        0.1472
      3 C          63.0072   87.6718   12.2196 C.ar    1  UNL1        0.0642
      4 C          62.3816   87.9844   10.8926 C.ar    1  UNL1        0.0159
      5 C          61.8732   86.8731   10.0228 C.ar    1  UNL1        0.0028
      6 C          61.9905   85.4493   10.4799 C.ar    1  UNL1        0.0188
      7 C          62.6161   85.1367   11.8069 C.ar    1  UNL1        0.0799
      8 C          63.1244   86.2480   12.6767 C.ar    1  UNL1        0.1113
      9 N          63.6894   85.6380   13.9253 N.ar    1  UNL1       -0.2297
     10 C          63.5303   84.1497   13.8270 C.ar    1  UNL1        0.1208
     11 C          63.9592   83.1471   14.8571 C.3     1  UNL1        0.0718
     12 N          62.8669   83.8399   12.5178 N.ar    1  UNL1       -0.3128
     13 C          62.5160   82.4733   12.0088 C.3     1  UNL1        0.1316
     14 C          63.1205   90.2013   12.8019 C.3     1  UNL1        0.1137
     15 C          65.1341   91.0857   14.8423 C.3     1  UNL1        0.0307
     16 C          65.1735   91.6536   13.4545 C.ar    1  UNL1       -0.0245
     17 C          66.2198   92.6637   13.0869 C.ar    1  UNL1       -0.0045
     18 C          66.2591   93.2317   11.6992 C.ar    1  UNL1       -0.0007
     19 C          65.2523   92.7895   10.6790 C.ar    1  UNL1       -0.0045
     20 C          64.2062   91.7794   11.0465 C.ar    1  UNL1       -0.0245
     21 C          63.1993   91.3372   10.0263 C.3     1  UNL1        0.0307
     22 C          64.1667   91.2114   12.4343 C.ar    1  UNL1       -0.0105
@<TRIPOS>BOND
     1    15    16    1
     2    16    17   ar
     3    17    18   ar
     4    18    19   ar
     5    19    20   ar
     6    20    21    1
     7    20    22   ar
     8    22    14    1
     9    14     1    1
    10     1     3    1
    11     3     4   ar
    12     4     5   ar
    13     5     6   ar
    14     6     7   ar
    15     7     8   ar
    16     8     9   ar
    17     9    10   ar
    18    10    11    1
    19    10    12   ar
    20    12    13    1
    21    22    16   ar
    22     8     3   ar
    23    12     7   ar
    24     1     2    1
@<TRIPOS>MOLECULE
*****
 22 24 0 0 0
SMALL
GASTEIGER

@<TRIPOS>ATOM
      1 N          60.3487   89.1352   11.2254 N.pl3   1  UNL1       -0.3279
      2 H          59.4846   89.6011   11.1503 H       1  UNL1        0.1472
      3 C          61.6253   89.9223   11.2530 C.ar    1  UNL1        0.0642
      4 C          62.1472   90.5493    9.9942 C.ar    1  UNL1        0.0159
      5 C          63.4238   91.3363   10.0218 C.ar    1  UNL1        0.0028
      6 C          64.1785   91.4965   11.3082 C.ar    1  UNL1        0.0188
      7 C          63.6566   90.8695   12.5670 C.ar    1  UNL1        0.0799
      8 C          62.3800   90.0825   12.5394 C.ar    1  UNL1        0.1113
      9 N          62.1133   89.5829   13.9284 N.ar    1  UNL1       -0.2297
     10 C          63.2251   90.0612   14.8144 C.ar    1  UNL1        0.1208
     11 C          63.3595   89.7917   16.2840 C.3     1  UNL1        0.0718
     12 N          64.1789   90.8564   13.9730 N.ar    1  UNL1       -0.3128
     13 C          65.4345   91.5217   14.4533 C.3     1  UNL1        0.1316
     14 C          60.3885   87.6382   11.3122 C.3     1  UNL1        0.1137
     15 C          59.3233   87.7441    8.5097 C.3     1  UNL1        0.0307
     16 C          60.5181   86.8944    8.8263 C.ar    1  UNL1       -0.0245
     17 C          61.1804   86.0975    7.7416 C.ar    1  UNL1       -0.0045
     18 C          62.3752   85.2478    8.0582 C.ar    1  UNL1       -0.0007
     19 C          62.9079   85.1948    9.4595 C.ar    1  UNL1       -0.0045
     20 C          62.2456   85.9916   10.5441 C.ar    1  UNL1       -0.0245
     21 C          62.7783   85.9387   11.9454 C.3     1  UNL1        0.0307
     22 C          61.0508   86.8414   10.2276 C.ar    1  UNL1       -0.0105
@<TRIPOS>BOND
     1    15    16    1
     2    16    17   ar
     3    17    18   ar
     4    18    19   ar
     5    19    20   ar
     6    20    21    1
     7    20    22   ar
     8    22    14    1
     9    14     1    1
    10     1     3    1
    11     3     4   ar
    12     4     5   ar
    13     5     6   ar
    14     6     7   ar
    15     7     8   ar
    16     8     9   ar
    17     9    10   ar
    18    10    11    1
    19    10    12   ar
    20    12    13    1
    21    22    16   ar
    22     8     3   ar
    23    12     7   ar
    24     1     2    1
@<TRIPOS>MOLECULE
*****
 22 24 0 0 0
SMALL
GASTEIGER

@<TRIPOS>ATOM
      1 N          62.3489   87.6433   12.3087 N.pl3   1  UNL1       -0.3279
      2 H          62.5280   87.5044   13.2667 H       1  UNL1        0.1472
      3 C          62.7171   88.9435   11.6576 C.ar    1  UNL1        0.0642
      4 C          62.1510   89.2964   10.3141 C.ar    1  UNL1        0.0159
      5 C          62.5193   90.5966    9.6631 C.ar    1  UNL1        0.0028
      6 C          63.4536   91.5439   10.3556 C.ar    1  UNL1        0.0188
      7 C          64.0197   91.1911   11.6991 C.ar    1  UNL1        0.0799
      8 C          63.6514   89.8909   12.3501 C.ar    1  UNL1        0.1113
      9 N          64.3615   89.8155   13.6693 N.ar    1  UNL1       -0.2297
     10 C          65.1686   91.0691   13.8335 C.ar    1  UNL1        0.1208
     11 C          66.0349   91.4124   15.0090 C.3     1  UNL1        0.0718
     12 N          64.9573   91.9193   12.6159 N.ar    1  UNL1       -0.3128
     13 C          65.5752   93.2619   12.3600 C.3     1  UNL1        0.1316
     14 C          61.7078   86.5547   11.5000 C.3     1  UNL1        0.1137
     15 C          62.7047   84.6061   13.5516 C.3     1  UNL1        0.0307
     16 C          63.0120   84.3891   12.0996 C.ar    1  UNL1       -0.0245
     17 C          63.8177   83.1978   11.6732 C.ar    1  UNL1       -0.0045
     18 C          64.1249   82.9808   10.2212 C.ar    1  UNL1       -0.0007
     19 C          63.6264   83.9551    9.1954 C.ar    1  UNL1       -0.0045
     20 C          62.8207   85.1464    9.6216 C.ar    1  UNL1       -0.0245
     21 C          62.3223   86.1207    8.5958 C.3     1  UNL1        0.0307
     22 C          62.5135   85.3634   11.0738 C.ar    1  UNL1       -0.0105
@<TRIPOS>BOND
     1    15    16    1
     2    16    17   ar
     3    17    18   ar
     4    18    19   ar
     5    19    20   ar
     6    20    21    1
     7    20    22   ar
     8    22    14    1
     9    14     1    1
    10     1     3    1
    11     3     4   ar
    12     4     5   ar
    13     5     6   ar
    14     6     7   ar
    15     7     8   ar
    16     8     9   ar
    17     9    10   ar
    18    10    11    1
    19    10    12   ar
    20    12    13    1
    21    22    16   ar
    22     8     3   ar
    23    12     7   ar
    24     1     2    1
@<TRIPOS>MOLECULE
*****
 22 24 0 0 0
SMALL
GASTEIGER

@<TRIPOS>ATOM
      1 N          63.8417   85.1123   13.8608 N.pl3   1  UNL1       -0.3279
      2 H          64.7593   84.8075   13.6759 H       1  UNL1        0.1472
      3 C          63.5725   86.0173   15.0263 C.ar    1  UNL1        0.0642
      4 C          63.1374   85.4390   16.3402 C.ar    1  UNL1        0.0159
      5 C          62.8683   86.3440   17.5056 C.ar    1  UNL1        0.0028
      6 C          63.0341   87.8274   17.3573 C.ar    1  UNL1        0.0188
      7 C          63.4692   88.4058   16.0435 C.ar    1  UNL1        0.0799
      8 C          63.7383   87.5007   14.8780 C.ar    1  UNL1        0.1113
      9 N          64.1515   88.3532   13.7149 N.ar    1  UNL1       -0.2297
     10 C          64.1377   89.7850   14.1616 C.ar    1  UNL1        0.1208
     11 C          64.4846   90.9754   13.3174 C.3     1  UNL1        0.0718
     12 N          63.7160   89.8175   15.6007 N.ar    1  UNL1       -0.3128
     13 C          63.5672   91.0461   16.4484 C.3     1  UNL1        0.1316
     14 C          62.7126   84.6717   12.9769 C.3     1  UNL1        0.1137
     15 C          61.3564   86.8868   11.4756 C.3     1  UNL1        0.0307
     16 C          62.1708   85.8678   10.7351 C.ar    1  UNL1       -0.0245
     17 C          62.3071   85.9563    9.2439 C.ar    1  UNL1       -0.0045
     18 C          63.1215   84.9373    8.5034 C.ar    1  UNL1       -0.0007
     19 C          63.7997   83.8298    9.2541 C.ar    1  UNL1       -0.0045
     20 C          63.6634   83.7412   10.7452 C.ar    1  UNL1       -0.0245
     21 C          64.3415   82.6337   11.4959 C.3     1  UNL1        0.0307
     22 C          62.8489   84.7603   11.4858 C.ar    1  UNL1       -0.0105
@<TRIPOS>BOND
     1    15    16    1
     2    16    17   ar
     3    17    18   ar
     4    18    19   ar
     5    19    20   ar
     6    20    21    1
     7    20    22   ar
     8    22    14    1
     9    14     1    1
    10     1     3    1
    11     3     4   ar
    12     4     5   ar
    13     5     6   ar
    14     6     7   ar
    15     7     8   ar
    16     8     9   ar
    17     9    10   ar
    18    10    11    1
    19    10    12   ar
    20    12    13    1
    21    22    16   ar
    22     8     3   ar
    23    12     7   ar
    24     1     2    1
@<TRIPOS>MOLECULE
*****
 22 24 0 0 0
SMALL
GASTEIGER

@<TRIPOS>ATOM
      1 N          62.7594   89.5461   10.9159 N.pl3   1  UNL1       -0.3279
      2 H          62.5631   90.1885   10.1963 H       1  UNL1        0.1472
      3 C          63.5262   89.9878   12.1272 C.ar    1  UNL1        0.0642
      4 C          63.4750   89.1730   13.3855 C.ar    1  UNL1        0.0159
      5 C          64.2417   89.6147   14.5967 C.ar    1  UNL1        0.0028
      6 C          65.0596   90.8712   14.5495 C.ar    1  UNL1        0.0188
      7 C          65.1108   91.6860   13.2912 C.ar    1  UNL1        0.0799
      8 C          64.3441   91.2443   12.0800 C.ar    1  UNL1        0.1113
      9 N          64.5843   92.2452   10.9888 N.ar    1  UNL1       -0.2297
     10 C          65.4995   93.3054   11.5257 C.ar    1  UNL1        0.1208
     11 C          66.0013   94.5014   10.7719 C.3     1  UNL1        0.0718
     12 N          65.8249   92.9599   12.9486 N.ar    1  UNL1       -0.3128
     13 C          66.7091   93.7495   13.8676 C.3     1  UNL1        0.1316
     14 C          62.2918   88.1254   10.8012 C.3     1  UNL1        0.1137
     15 C          62.6736   85.5121    9.3783 C.3     1  UNL1        0.0307
     16 C          61.5493   86.4234    8.9842 C.ar    1  UNL1       -0.0245
     17 C          60.6158   86.0280    7.8786 C.ar    1  UNL1       -0.0045
     18 C          59.4914   86.9393    7.4845 C.ar    1  UNL1       -0.0007
     19 C          59.3005   88.2460    8.1960 C.ar    1  UNL1       -0.0045
     20 C          60.2339   88.6414    9.3015 C.ar    1  UNL1       -0.0245
     21 C          60.0430   89.9480   10.0130 C.3     1  UNL1        0.0307
     22 C          61.3584   87.7301    9.6957 C.ar    1  UNL1       -0.0105
@<TRIPOS>BOND
     1    15    16    1
     2    16    17   ar
     3    17    18   ar
     4    18    19   ar
     5    19    20   ar
     6    20    21    1
     7    20    22   ar
     8    22    14    1
     9    14     1    1
    10     1     3    1
    11     3     4   ar
    12     4     5   ar
    13     5     6   ar
    14     6     7   ar
    15     7     8   ar
    16     8     9   ar
    17     9    10   ar
    18    10    11    1
    19    10    12   ar
    20    12    13    1
    21    22    16   ar
    22     8     3   ar
    23    12     7   ar
    24     1     2    1
