@<TRIPOS>MOLECULE
*****
 43 48 0 0 0
SMALL
GASTEIGER

@<TRIPOS>ATOM
      1 N          60.5376   89.8862    9.5377 N.pl3   1  UNL1       -0.2801
      2 H          59.7621   90.4766    9.3991 H       1  UNL1        0.1552
      3 C          61.6817   89.9666   11.8690 C.ar    1  UNL1        0.1477
      4 C          61.6713   90.3303   10.4137 C.ar    1  UNL1        0.0846
      5 C          62.7946   91.1381    9.8345 C.ar    1  UNL1        0.0174
      6 C          63.9284   91.5823   10.7105 C.ar    1  UNL1       -0.0031
      7 C          63.9388   91.2185   12.1658 C.ar    1  UNL1       -0.0218
      8 C          62.8155   90.4107   12.7449 C.ar    1  UNL1        0.0091
      9 C          62.6315   89.9433   14.1583 C.3     1  UNL1        0.0292
     10 C          63.5256   90.1684   15.3417 C.3     1  UNL1        0.0062
     11 C          64.8242   90.9164   15.4037 C.3     1  UNL1        0.0166
     12 C          65.5497   91.6241   14.2979 C.3     1  UNL1        0.0619
     13 C          65.1556   91.7586   12.8569 C.3     1  UNL1        0.0421
     14 N          66.8398   92.2846   14.6842 N.3     1  UNL1       -0.2713
     15 C          68.0822   92.0297   13.8832 C.3     1  UNL1        0.0896
     16 C          69.3724   92.6903   14.2696 C.3     1  UNL1        0.0897
     17 N          69.4201   93.6058   15.4569 N.3     1  UNL1       -0.2691
     18 C          70.7102   94.2663   15.8432 C.3     1  UNL1        0.0897
     19 C          68.1777   93.8607   16.2578 C.3     1  UNL1        0.0897
     20 C          66.8875   93.2001   15.8715 C.3     1  UNL1        0.0896
     21 C          59.1518   89.6756   12.3833 C.3     1  UNL1        0.2525
     22 O          60.5584   89.1587   12.4482 O.3     1  UNL1       -0.4705
     23 C          60.5855   88.5424    8.8729 C.ar    1  UNL1        0.2219
     24 N          59.4310   88.0786    8.0348 N.ar    1  UNL1       -0.2110
     25 C          59.4789   86.7349    7.3700 C.ar    1  UNL1        0.1160
     26 C          60.6813   85.8549    7.5432 C.ar    1  UNL1        0.1082
     27 CL         60.7292   84.5111    6.8783 Cl      1  UNL1       -0.0777
     28 C          61.8357   86.3186    8.3812 C.ar    1  UNL1        0.1435
     29 N          61.7878   87.6623    9.0460 N.ar    1  UNL1       -0.1979
     30 N          63.0381   85.4386    8.5544 N.pl3   1  UNL1       -0.3181
     31 H          63.7836   85.4921    7.9136 H       1  UNL1        0.1482
     32 C          63.1046   84.4772    9.7037 C.3     1  UNL1        0.0832
     33 C          62.7492   84.7809   11.1290 C.3     1  UNL1        0.0984
     34 C          62.9631   83.5346   11.9358 C.3     1  UNL1        0.0323
     35 C          63.3967   82.1005   11.8617 C.2     1  UNL1       -0.0304
     36 C          63.7520   81.7968   10.4364 C.2     1  UNL1       -0.0294
     37 C          63.5381   83.0431    9.6296 C.3     1  UNL1        0.0404
     38 C          63.0505   84.1172   10.5564 C.3     1  UNL1        0.0109
     39 C          62.2649   86.0995   11.6552 C.2     1  UNL1        0.2208
     40 N          60.8219   86.4817   11.5074 N.am    1  UNL1       -0.3288
     41 O          63.2235   87.0359   12.3291 O.2     1  UNL1       -0.2753
     42 H          60.1927   85.8671   11.0651 H       1  UNL1        0.1449
     43 H          60.5040   87.3471   11.8527 H       1  UNL1        0.1449
@<TRIPOS>BOND
     1    21    22    1
     2    22     3    1
     3     3     4   ar
     4     4     1    1
     5     1    23    1
     6    23    24   ar
     7    24    25   ar
     8    25    26   ar
     9    26    27    1
    10    26    28   ar
    11    28    30    1
    12    32    30    1
    13    32    33    1
    14    33    39    1
    15    39    40   am
    16    39    41    2
    17    33    34    1
    18    34    35    1
    19    35    36    2
    20    37    36    1
    21    37    38    1
    22    28    29   ar
    23     4     5   ar
    24     5     6   ar
    25     6     7   ar
    26     7     8   ar
    27     8     9    1
    28     9    10    1
    29    10    11    1
    30    11    12    1
    31    12    14    1
    32    14    15    1
    33    15    16    1
    34    16    17    1
    35    17    18    1
    36    17    19    1
    37    19    20    1
    38    12    13    1
    39     8     3   ar
    40    20    14    1
    41    29    23   ar
    42    13     7    1
    43    37    32    1
    44    38    34    1
    45     1     2    1
    46    30    31    1
    47    40    42    1
    48    40    43    1
@<TRIPOS>MOLECULE
*****
 43 48 0 0 0
SMALL
GASTEIGER

@<TRIPOS>ATOM
      1 N          63.0247   90.8532   13.3377 N.pl3   1  UNL1       -0.2801
      2 H          62.1880   91.3517   13.1941 H       1  UNL1        0.1552
      3 C          63.5777   88.4674   14.2052 C.ar    1  UNL1        0.1477
      4 C          63.0595   89.3689   13.1241 C.ar    1  UNL1        0.0846
      5 C          62.5760   88.7861   11.8292 C.ar    1  UNL1        0.0174
      6 C          62.6107   87.3018   11.6155 C.ar    1  UNL1       -0.0031
      7 C          63.1290   86.4003   12.6967 C.ar    1  UNL1       -0.0218
      8 C          63.6124   86.9831   13.9914 C.ar    1  UNL1        0.0091
      9 C          64.1635   86.2696   15.1903 C.3     1  UNL1        0.0292
     10 C          64.3672   84.7969   15.3903 C.3     1  UNL1        0.0062
     11 C          64.0701   83.6743   14.4410 C.3     1  UNL1        0.0166
     12 C          63.4959   83.7468   13.0572 C.3     1  UNL1        0.0619
     13 C          63.0771   84.9600   12.2808 C.3     1  UNL1        0.0421
     14 N          63.3170   82.4324   12.3571 N.3     1  UNL1       -0.2713
     15 C          63.5675   82.3282   10.8818 C.3     1  UNL1        0.0896
     16 C          63.3885   81.0136   10.1817 C.3     1  UNL1        0.0897
     17 N          62.9590   79.8034   10.9568 N.3     1  UNL1       -0.2691
     18 C          62.7801   78.4889   10.2567 C.3     1  UNL1        0.0897
     19 C          62.7085   79.9076   12.4321 C.3     1  UNL1        0.0897
     20 C          62.8875   81.2221   13.1322 C.3     1  UNL1        0.0896
     21 C          63.1178   89.1914   16.6575 C.3     1  UNL1        0.2525
     22 O          64.0612   89.0502   15.5000 O.3     1  UNL1       -0.4705
     23 C          64.2648   91.5778   13.7703 C.ar    1  UNL1        0.2219
     24 N          64.5515   91.7684   15.2303 N.ar    1  UNL1       -0.2110
     25 C          65.7916   92.4930   15.6628 C.ar    1  UNL1        0.1160
     26 C          66.7450   93.0271   14.6353 C.ar    1  UNL1        0.1082
     27 CL         67.9851   93.7518   15.0678 Cl      1  UNL1       -0.0777
     28 C          66.4584   92.8366   13.1753 C.ar    1  UNL1        0.1435
     29 N          65.2183   92.1119   12.7428 N.ar    1  UNL1       -0.1979
     30 N          67.4118   93.3707   12.1478 N.pl3   1  UNL1       -0.3181
     31 H          68.3376   93.0375   12.1151 H       1  UNL1        0.1482
     32 C          66.9546   94.4123   11.1701 C.3     1  UNL1        0.0832
     33 C          67.3486   94.4988    9.7254 C.3     1  UNL1        0.0984
     34 C          66.6607   95.6903    9.1278 C.3     1  UNL1        0.0323
     35 C          65.7292   96.8283    9.4232 C.2     1  UNL1       -0.0304
     36 C          65.3351   96.7418   10.8679 C.2     1  UNL1       -0.0294
     37 C          66.0231   95.5503   11.4654 C.3     1  UNL1        0.0404
     38 C          66.8423   94.9004   10.3899 C.3     1  UNL1        0.0109
     39 C          68.2691   93.5589    9.0046 C.2     1  UNL1        0.2208
     40 N          69.2480   92.7269    9.7789 N.am    1  UNL1       -0.3288
     41 O          68.2105   93.4509    7.5097 O.2     1  UNL1       -0.2753
     42 H          69.2864   92.7977   10.7601 H       1  UNL1        0.1449
     43 H          69.8521   92.1100    9.3059 H       1  UNL1        0.1449
@<TRIPOS>BOND
     1    21    22    1
     2    22     3    1
     3     3     4   ar
     4     4     1    1
     5     1    23    1
     6    23    24   ar
     7    24    25   ar
     8    25    26   ar
     9    26    27    1
    10    26    28   ar
    11    28    30    1
    12    32    30    1
    13    32    33    1
    14    33    39    1
    15    39    40   am
    16    39    41    2
    17    33    34    1
    18    34    35    1
    19    35    36    2
    20    37    36    1
    21    37    38    1
    22    28    29   ar
    23     4     5   ar
    24     5     6   ar
    25     6     7   ar
    26     7     8   ar
    27     8     9    1
    28     9    10    1
    29    10    11    1
    30    11    12    1
    31    12    14    1
    32    14    15    1
    33    15    16    1
    34    16    17    1
    35    17    18    1
    36    17    19    1
    37    19    20    1
    38    12    13    1
    39     8     3   ar
    40    20    14    1
    41    29    23   ar
    42    13     7    1
    43    37    32    1
    44    38    34    1
    45     1     2    1
    46    30    31    1
    47    40    42    1
    48    40    43    1
@<TRIPOS>MOLECULE
*****
 43 48 0 0 0
SMALL
GASTEIGER

@<TRIPOS>ATOM
      1 N          63.0553   90.8890   13.1685 N.pl3   1  UNL1       -0.2801
      2 H          62.2205   91.3873   13.0136 H       1  UNL1        0.1552
      3 C          63.5817   88.5192   14.0944 C.ar    1  UNL1        0.1477
      4 C          63.0848   89.4004   12.9868 C.ar    1  UNL1        0.0846
      5 C          62.6175   88.7928   11.6974 C.ar    1  UNL1        0.0174
      6 C          62.6471   87.3041   11.5156 C.ar    1  UNL1       -0.0031
      7 C          63.1440   86.4230   12.6232 C.ar    1  UNL1       -0.0218
      8 C          63.6113   87.0306   13.9125 C.ar    1  UNL1        0.0091
      9 C          64.1403   86.3397   15.1344 C.3     1  UNL1        0.0292
     10 C          64.3326   84.8705   15.3685 C.3     1  UNL1        0.0062
     11 C          64.0435   83.7297   14.4388 C.3     1  UNL1        0.0166
     12 C          63.4905   83.7759   13.0452 C.3     1  UNL1        0.0619
     13 C          63.0902   84.9745   12.2371 C.3     1  UNL1        0.0421
     14 N          63.3147   82.4479   12.3704 N.3     1  UNL1       -0.2713
     15 C          62.9371   81.2408   13.1770 C.3     1  UNL1        0.0896
     16 C          62.7613   79.9128   12.5021 C.3     1  UNL1        0.0897
     17 N          62.9629   79.7917   11.0207 N.3     1  UNL1       -0.2691
     18 C          62.7871   78.4637   10.3459 C.3     1  UNL1        0.0897
     19 C          63.3405   80.9987   10.2140 C.3     1  UNL1        0.0897
     20 C          63.5163   82.3268   10.8889 C.3     1  UNL1        0.0896
     21 C          63.1371   89.1532   16.5743 C.3     1  UNL1        0.2525
     22 O          64.0490   89.1267   15.3838 O.3     1  UNL1       -0.4705
     23 C          64.2976   91.6183   13.5863 C.ar    1  UNL1        0.2219
     24 N          64.8893   91.3758   14.9433 N.ar    1  UNL1       -0.2110
     25 C          66.1316   92.1051   15.3611 C.ar    1  UNL1        0.1160
     26 C          66.7824   93.0770   14.4220 C.ar    1  UNL1        0.1082
     27 CL         68.0248   93.8063   14.8398 Cl      1  UNL1       -0.0777
     28 C          66.1909   93.3195   13.0650 C.ar    1  UNL1        0.1435
     29 N          64.9485   92.5902   12.6472 N.ar    1  UNL1       -0.1979
     30 N          66.8416   94.2914   12.1259 N.pl3   1  UNL1       -0.3181
     31 H          66.9055   95.2433   12.3689 H       1  UNL1        0.1482
     32 C          67.3951   93.8130   10.8164 C.3     1  UNL1        0.0832
     33 C          67.6057   94.6501    9.5897 C.3     1  UNL1        0.0984
     34 C          68.1759   93.7680    8.5188 C.3     1  UNL1        0.0323
     35 C          68.6159   92.3684    8.2062 C.2     1  UNL1       -0.0304
     36 C          68.4053   91.5314    9.4329 C.2     1  UNL1       -0.0294
     37 C          67.8351   92.4135   10.5038 C.3     1  UNL1        0.0404
     38 C          67.6933   93.7958    9.9388 C.3     1  UNL1        0.0109
     39 C          67.2999   96.1126    9.4570 C.2     1  UNL1        0.2208
     40 N          67.6179   96.8325    8.1801 N.am    1  UNL1       -0.3288
     41 O          66.6761   96.8552   10.6013 O.2     1  UNL1       -0.2753
     42 H          68.0274   96.3452    7.4291 H       1  UNL1        0.1449
     43 H          67.4172   97.7924    8.0930 H       1  UNL1        0.1449
@<TRIPOS>BOND
     1    21    22    1
     2    22     3    1
     3     3     4   ar
     4     4     1    1
     5     1    23    1
     6    23    24   ar
     7    24    25   ar
     8    25    26   ar
     9    26    27    1
    10    26    28   ar
    11    28    30    1
    12    32    30    1
    13    32    33    1
    14    33    39    1
    15    39    40   am
    16    39    41    2
    17    33    34    1
    18    34    35    1
    19    35    36    2
    20    37    36    1
    21    37    38    1
    22    28    29   ar
    23     4     5   ar
    24     5     6   ar
    25     6     7   ar
    26     7     8   ar
    27     8     9    1
    28     9    10    1
    29    10    11    1
    30    11    12    1
    31    12    14    1
    32    14    15    1
    33    15    16    1
    34    16    17    1
    35    17    18    1
    36    17    19    1
    37    19    20    1
    38    12    13    1
    39     8     3   ar
    40    20    14    1
    41    29    23   ar
    42    13     7    1
    43    37    32    1
    44    38    34    1
    45     1     2    1
    46    30    31    1
    47    40    42    1
    48    40    43    1
@<TRIPOS>MOLECULE
*****
 43 48 0 0 0
SMALL
GASTEIGER

@<TRIPOS>ATOM
      1 N          60.4349   89.8001    9.4528 N.pl3   1  UNL1       -0.2801
      2 H          59.6603   90.3921    9.3153 H       1  UNL1        0.1552
      3 C          61.5957   89.8247   11.7770 C.ar    1  UNL1        0.1477
      4 C          61.5660   90.2377   10.3353 C.ar    1  UNL1        0.0846
      5 C          62.6676   91.0885    9.7760 C.ar    1  UNL1        0.0174
      6 C          63.7989   91.5261   10.6585 C.ar    1  UNL1       -0.0031
      7 C          63.8285   91.1130   12.1003 C.ar    1  UNL1       -0.0218
      8 C          62.7270   90.2623   12.6594 C.ar    1  UNL1        0.0091
      9 C          62.5641   89.7429   14.0572 C.3     1  UNL1        0.0292
     10 C          63.4627   89.9461   15.2410 C.3     1  UNL1        0.0062
     11 C          64.7459   90.7187   15.3194 C.3     1  UNL1        0.0166
     12 C          65.4477   91.4791   14.2333 C.3     1  UNL1        0.0619
     13 C          65.0394   91.6546   12.8007 C.3     1  UNL1        0.0421
     14 N          66.7268   92.1530   14.6327 N.3     1  UNL1       -0.2713
     15 C          66.7528   93.0690   15.8204 C.3     1  UNL1        0.0896
     16 C          68.0321   93.7430   16.2198 C.3     1  UNL1        0.0897
     17 N          69.2852   93.5010   15.4316 N.3     1  UNL1       -0.2691
     18 C          70.5643   94.1750   15.8310 C.3     1  UNL1        0.0897
     19 C          69.2591   92.5851   14.2440 C.3     1  UNL1        0.0897
     20 C          67.9799   91.9111   13.8446 C.3     1  UNL1        0.0896
     21 C          59.1031   89.5244   12.4452 C.3     1  UNL1        0.2525
     22 O          60.4941   88.9739   12.3362 O.3     1  UNL1       -0.4705
     23 C          60.4838   88.4605    8.7797 C.ar    1  UNL1        0.2219
     24 N          59.5600   88.1613    7.6363 N.ar    1  UNL1       -0.2110
     25 C          59.6089   86.8218    6.9633 C.ar    1  UNL1        0.1160
     26 C          60.5816   85.7812    7.4336 C.ar    1  UNL1        0.1082
     27 CL         60.6305   84.4416    6.7605 Cl      1  UNL1       -0.0777
     28 C          61.5054   86.0802    8.5770 C.ar    1  UNL1        0.1435
     29 N          61.4565   87.4199    9.2500 N.ar    1  UNL1       -0.1979
     30 N          62.4780   85.0397    9.0473 N.pl3   1  UNL1       -0.3181
     31 H          62.8711   84.4067    8.4039 H       1  UNL1        0.1482
     32 C          62.8518   84.9637   10.4979 C.3     1  UNL1        0.0832
     33 C          63.4264   83.7685   11.1989 C.3     1  UNL1        0.0984
     34 C          63.6463   84.1355   12.6365 C.3     1  UNL1        0.0323
     35 C          63.5112   85.2414   13.6410 C.2     1  UNL1       -0.0304
     36 C          62.9366   86.4366   12.9400 C.2     1  UNL1       -0.0294
     37 C          62.7167   86.0695   11.5024 C.3     1  UNL1        0.0404
     38 C          63.1553   84.6473   11.3148 C.3     1  UNL1        0.0109
     39 C          63.7280   82.4394   10.5722 C.2     1  UNL1        0.2208
     40 N          62.9001   81.2391   10.9240 N.am    1  UNL1       -0.3288
     41 O          64.8577   82.3107    9.5937 O.2     1  UNL1       -0.2753
     42 H          62.1587   81.3236   11.5662 H       1  UNL1        0.1449
     43 H          63.0980   80.3668   10.5127 H       1  UNL1        0.1449
@<TRIPOS>BOND
     1    21    22    1
     2    22     3    1
     3     3     4   ar
     4     4     1    1
     5     1    23    1
     6    23    24   ar
     7    24    25   ar
     8    25    26   ar
     9    26    27    1
    10    26    28   ar
    11    28    30    1
    12    32    30    1
    13    32    33    1
    14    33    39    1
    15    39    40   am
    16    39    41    2
    17    33    34    1
    18    34    35    1
    19    35    36    2
    20    37    36    1
    21    37    38    1
    22    28    29   ar
    23     4     5   ar
    24     5     6   ar
    25     6     7   ar
    26     7     8   ar
    27     8     9    1
    28     9    10    1
    29    10    11    1
    30    11    12    1
    31    12    14    1
    32    14    15    1
    33    15    16    1
    34    16    17    1
    35    17    18    1
    36    17    19    1
    37    19    20    1
    38    12    13    1
    39     8     3   ar
    40    20    14    1
    41    29    23   ar
    42    13     7    1
    43    37    32    1
    44    38    34    1
    45     1     2    1
    46    30    31    1
    47    40    42    1
    48    40    43    1
@<TRIPOS>MOLECULE
*****
 43 48 0 0 0
SMALL
GASTEIGER

@<TRIPOS>ATOM
      1 N          62.4281   90.3845   12.2404 N.pl3   1  UNL1       -0.2801
      2 H          61.5853   90.7972   12.5380 H       1  UNL1        0.1552
      3 C          63.3325   88.1411   13.1888 C.ar    1  UNL1        0.1477
      4 C          62.5437   88.8913   12.1568 C.ar    1  UNL1        0.0846
      5 C          61.8704   88.1483   11.0412 C.ar    1  UNL1        0.0174
      6 C          61.9859   86.6551   10.9576 C.ar    1  UNL1       -0.0031
      7 C          62.7747   85.9049   11.9896 C.ar    1  UNL1       -0.0218
      8 C          63.4480   86.6479   13.1051 C.ar    1  UNL1        0.0091
      9 C          64.2760   86.0986   14.2289 C.3     1  UNL1        0.0292
     10 C          64.6352   84.6704   14.5144 C.3     1  UNL1        0.0062
     11 C          64.2551   83.4391   13.7469 C.3     1  UNL1        0.0166
     12 C          63.4220   83.3316   12.5041 C.3     1  UNL1        0.0619
     13 C          62.7631   84.4290   11.7221 C.3     1  UNL1        0.0421
     14 N          63.2211   81.9432   11.9733 N.3     1  UNL1       -0.2713
     15 C          62.8550   80.8285   12.9080 C.3     1  UNL1        0.0896
     16 C          62.6542   79.4400   12.3771 C.3     1  UNL1        0.0897
     17 N          62.8194   79.1661   10.9116 N.3     1  UNL1       -0.2691
     18 C          62.6185   77.7777   10.3808 C.3     1  UNL1        0.0897
     19 C          63.1855   80.2808    9.9769 C.3     1  UNL1        0.0897
     20 C          63.3863   81.6693   10.5078 C.3     1  UNL1        0.0896
     21 C          63.5035   88.7419   15.7107 C.3     1  UNL1        0.2525
     22 O          64.0058   88.8841   14.3045 O.3     1  UNL1       -0.4705
     23 C          63.5968   91.2490   11.8705 C.ar    1  UNL1        0.2219
     24 N          64.1145   91.2483   10.4626 N.ar    1  UNL1       -0.2110
     25 C          65.2831   92.1128   10.0927 C.ar    1  UNL1        0.1160
     26 C          65.9342   92.9780   11.1308 C.ar    1  UNL1        0.1082
     27 CL         67.1029   93.8425   10.7609 Cl      1  UNL1       -0.0777
     28 C          65.4167   92.9788   12.5387 C.ar    1  UNL1        0.1435
     29 N          64.2480   92.1143   12.9086 N.ar    1  UNL1       -0.1979
     30 N          66.0677   93.8440   13.5767 N.pl3   1  UNL1       -0.3181
     31 H          65.9093   94.8156   13.5775 H       1  UNL1        0.1482
     32 C          66.9601   93.2288   14.6135 C.3     1  UNL1        0.0832
     33 C          66.5103   92.5453   15.8707 C.3     1  UNL1        0.0984
     34 C          67.7312   92.0832   16.6094 C.3     1  UNL1        0.0323
     35 C          69.2302   92.0435   16.5712 C.2     1  UNL1       -0.0304
     36 C          69.6800   92.7270   15.3140 C.2     1  UNL1       -0.0294
     37 C          68.4591   93.1891   14.5753 C.3     1  UNL1        0.0404
     38 C          67.2546   92.7912   15.3760 C.3     1  UNL1        0.0109
     39 C          65.0889   92.3570   16.3118 C.2     1  UNL1        0.2208
     40 N          64.2071   91.3737   15.6008 N.am    1  UNL1       -0.3288
     41 O          64.5496   93.1520   17.4637 O.2     1  UNL1       -0.2753
     42 H          64.5611   90.8519   14.8447 H       1  UNL1        0.1449
     43 H          63.2742   91.2501   15.8903 H       1  UNL1        0.1449
@<TRIPOS>BOND
     1    21    22    1
     2    22     3    1
     3     3     4   ar
     4     4     1    1
     5     1    23    1
     6    23    24   ar
     7    24    25   ar
     8    25    26   ar
     9    26    27    1
    10    26    28   ar
    11    28    30    1
    12    32    30    1
    13    32    33    1
    14    33    39    1
    15    39    40   am
    16    39    41    2
    17    33    34    1
    18    34    35    1
    19    35    36    2
    20    37    36    1
    21    37    38    1
    22    28    29   ar
    23     4     5   ar
    24     5     6   ar
    25     6     7   ar
    26     7     8   ar
    27     8     9    1
    28     9    10    1
    29    10    11    1
    30    11    12    1
    31    12    14    1
    32    14    15    1
    33    15    16    1
    34    16    17    1
    35    17    18    1
    36    17    19    1
    37    19    20    1
    38    12    13    1
    39     8     3   ar
    40    20    14    1
    41    29    23   ar
    42    13     7    1
    43    37    32    1
    44    38    34    1
    45     1     2    1
    46    30    31    1
    47    40    42    1
    48    40    43    1
@<TRIPOS>MOLECULE
*****
 43 48 0 0 0
SMALL
GASTEIGER

@<TRIPOS>ATOM
      1 N          63.4973   91.2317   14.5957 N.pl3   1  UNL1       -0.2801
      2 H          62.6849   91.7211   14.8597 H       1  UNL1        0.1552
      3 C          62.9198   89.5995   12.6585 C.ar    1  UNL1        0.1477
      4 C          63.3907   89.8334   14.0633 C.ar    1  UNL1        0.0846
      5 C          63.7550   88.6690   14.9359 C.ar    1  UNL1        0.0174
      6 C          63.6484   87.2706   14.4036 C.ar    1  UNL1       -0.0031
      7 C          63.1775   87.0367   12.9987 C.ar    1  UNL1       -0.0218
      8 C          62.8132   88.2011   12.1263 C.ar    1  UNL1        0.0091
      9 C          62.3254   88.1904   10.7078 C.3     1  UNL1        0.0292
     10 C          62.0814   87.0125    9.8116 C.3     1  UNL1        0.0062
     11 C          62.2650   85.5546   10.1125 C.3     1  UNL1        0.0166
     12 C          62.7379   84.9143   11.3839 C.3     1  UNL1        0.0619
     13 C          63.1440   85.5739   12.6684 C.3     1  UNL1        0.0421
     14 N          62.8149   83.4164   11.3688 N.3     1  UNL1       -0.2713
     15 C          62.3068   82.6274   12.5390 C.3     1  UNL1        0.0896
     16 C          62.3838   81.1294   12.5238 C.3     1  UNL1        0.0897
     17 N          62.9689   80.4204   11.3385 N.3     1  UNL1       -0.2691
     18 C          63.0458   78.9225   11.3234 C.3     1  UNL1        0.0897
     19 C          63.4770   81.2094   10.1683 C.3     1  UNL1        0.0897
     20 C          63.4000   82.7074   10.1834 C.3     1  UNL1        0.0896
     21 C          63.5407   91.2867   10.7830 C.3     1  UNL1        0.2525
     22 O          62.5555   90.7639   11.7859 O.3     1  UNL1       -0.4705
     23 C          64.8416   91.8842   14.7257 C.ar    1  UNL1        0.2219
     24 N          65.4326   92.1202   16.0840 N.ar    1  UNL1       -0.2110
     25 C          66.7769   92.7727   16.2141 C.ar    1  UNL1        0.1160
     26 C          67.5304   93.1892   14.9857 C.ar    1  UNL1        0.1082
     27 CL         68.8748   93.8417   15.1157 Cl      1  UNL1       -0.0777
     28 C          66.9395   92.9532   13.6273 C.ar    1  UNL1        0.1435
     29 N          65.5951   92.3007   13.4973 N.ar    1  UNL1       -0.1979
     30 N          67.6929   93.3697   12.3989 N.pl3   1  UNL1       -0.3181
     31 H          68.6069   93.0375   12.2458 H       1  UNL1        0.1482
     32 C          67.0537   94.2922   11.4038 C.3     1  UNL1        0.0832
     33 C          67.1334   94.1706    9.9109 C.3     1  UNL1        0.0984
     34 C          66.3516   95.3016    9.3112 C.3     1  UNL1        0.0323
     35 C          65.5204   96.5077    9.6343 C.2     1  UNL1       -0.0304
     36 C          65.4407   96.6293   11.1272 C.2     1  UNL1       -0.0294
     37 C          66.2225   95.4983   11.7269 C.3     1  UNL1        0.0404
     38 C          66.7855   94.6777   10.6045 C.3     1  UNL1        0.0109
     39 C          67.8664   93.1050    9.1509 C.2     1  UNL1        0.2208
     40 N          68.0614   91.7485    9.7606 N.am    1  UNL1       -0.3288
     41 O          68.4044   93.3961    7.7813 O.2     1  UNL1       -0.2753
     42 H          67.7083   91.5575   10.6596 H       1  UNL1        0.1449
     43 H          68.5425   91.0492    9.2619 H       1  UNL1        0.1449
@<TRIPOS>BOND
     1    21    22    1
     2    22     3    1
     3     3     4   ar
     4     4     1    1
     5     1    23    1
     6    23    24   ar
     7    24    25   ar
     8    25    26   ar
     9    26    27    1
    10    26    28   ar
    11    28    30    1
    12    32    30    1
    13    32    33    1
    14    33    39    1
    15    39    40   am
    16    39    41    2
    17    33    34    1
    18    34    35    1
    19    35    36    2
    20    37    36    1
    21    37    38    1
    22    28    29   ar
    23     4     5   ar
    24     5     6   ar
    25     6     7   ar
    26     7     8   ar
    27     8     9    1
    28     9    10    1
    29    10    11    1
    30    11    12    1
    31    12    14    1
    32    14    15    1
    33    15    16    1
    34    16    17    1
    35    17    18    1
    36    17    19    1
    37    19    20    1
    38    12    13    1
    39     8     3   ar
    40    20    14    1
    41    29    23   ar
    42    13     7    1
    43    37    32    1
    44    38    34    1
    45     1     2    1
    46    30    31    1
    47    40    42    1
    48    40    43    1
@<TRIPOS>MOLECULE
*****
 43 48 0 0 0
SMALL
GASTEIGER

@<TRIPOS>ATOM
      1 N          63.8377   90.9562   14.3201 N.pl3   1  UNL1       -0.2801
      2 H          63.0485   91.5156   14.5029 H       1  UNL1        0.1552
      3 C          63.1486   89.2365   12.4985 C.ar    1  UNL1        0.1477
      4 C          63.6624   89.5342   13.8759 C.ar    1  UNL1        0.0846
      5 C          64.0010   88.4098   14.8093 C.ar    1  UNL1        0.0174
      6 C          63.8257   86.9878   14.3652 C.ar    1  UNL1       -0.0031
      7 C          63.3119   86.6902   12.9877 C.ar    1  UNL1       -0.0218
      8 C          62.9734   87.8145   12.0544 C.ar    1  UNL1        0.0091
      9 C          62.4512   87.7394   10.6502 C.3     1  UNL1        0.0292
     10 C          62.1386   86.5212    9.8326 C.3     1  UNL1        0.0062
     11 C          62.2711   85.0775   10.2172 C.3     1  UNL1        0.0166
     12 C          62.7488   84.4952   11.5144 C.3     1  UNL1        0.0619
     13 C          63.2120   85.2129   12.7474 C.3     1  UNL1        0.0421
     14 N          62.7654   82.9972   11.5885 N.3     1  UNL1       -0.2713
     15 C          62.3773   82.3048   12.8613 C.3     1  UNL1        0.0896
     16 C          62.3940   80.8066   12.9353 C.3     1  UNL1        0.0897
     17 N          62.7987   80.0009   11.7365 N.3     1  UNL1       -0.2691
     18 C          62.8154   78.5029   11.8105 C.3     1  UNL1        0.0897
     19 C          63.1868   80.6933   10.4637 C.3     1  UNL1        0.0897
     20 C          63.1702   82.1915   10.3897 C.3     1  UNL1        0.0896
     21 C          61.3918   90.8340   11.4442 C.3     1  UNL1        0.2525
     22 O          62.8100   90.3609   11.5651 O.3     1  UNL1       -0.4705
     23 C          65.2154   91.5257   14.4857 C.ar    1  UNL1        0.2219
     24 N          65.5933   92.2158   15.7629 N.ar    1  UNL1       -0.2110
     25 C          66.9709   92.7853   15.9285 C.ar    1  UNL1        0.1160
     26 C          67.9710   92.6648   14.8169 C.ar    1  UNL1        0.1082
     27 CL         69.3487   93.2343   14.9826 Cl      1  UNL1       -0.0777
     28 C          67.5932   91.9747   13.5398 C.ar    1  UNL1        0.1435
     29 N          66.2155   91.4051   13.3741 N.ar    1  UNL1       -0.1979
     30 N          68.5932   91.8541   12.4282 N.pl3   1  UNL1       -0.3181
     31 H          69.4490   91.3931   12.5839 H       1  UNL1        0.1482
     32 C          68.2892   92.4358   11.0795 C.3     1  UNL1        0.0832
     33 C          67.1869   93.4030   10.7646 C.3     1  UNL1        0.0984
     34 C          67.2506   93.7174    9.2993 C.3     1  UNL1        0.0323
     35 C          67.9956   93.4340    8.0286 C.2     1  UNL1       -0.0304
     36 C          69.0979   92.4668    8.3436 C.2     1  UNL1       -0.0294
     37 C          69.0342   92.1523    9.8089 C.3     1  UNL1        0.0404
     38 C          67.8924   92.9254   10.3995 C.3     1  UNL1        0.0109
     39 C          66.1949   93.9584   11.7432 C.2     1  UNL1        0.2208
     40 N          64.7879   93.4387   11.7616 N.am    1  UNL1       -0.3288
     41 O          66.6099   95.0336   12.7033 O.2     1  UNL1       -0.2753
     42 H          64.5155   92.7331   11.1314 H       1  UNL1        0.1449
     43 H          64.1368   93.8032   12.4039 H       1  UNL1        0.1449
@<TRIPOS>BOND
     1    21    22    1
     2    22     3    1
     3     3     4   ar
     4     4     1    1
     5     1    23    1
     6    23    24   ar
     7    24    25   ar
     8    25    26   ar
     9    26    27    1
    10    26    28   ar
    11    28    30    1
    12    32    30    1
    13    32    33    1
    14    33    39    1
    15    39    40   am
    16    39    41    2
    17    33    34    1
    18    34    35    1
    19    35    36    2
    20    37    36    1
    21    37    38    1
    22    28    29   ar
    23     4     5   ar
    24     5     6   ar
    25     6     7   ar
    26     7     8   ar
    27     8     9    1
    28     9    10    1
    29    10    11    1
    30    11    12    1
    31    12    14    1
    32    14    15    1
    33    15    16    1
    34    16    17    1
    35    17    18    1
    36    17    19    1
    37    19    20    1
    38    12    13    1
    39     8     3   ar
    40    20    14    1
    41    29    23   ar
    42    13     7    1
    43    37    32    1
    44    38    34    1
    45     1     2    1
    46    30    31    1
    47    40    42    1
    48    40    43    1
@<TRIPOS>MOLECULE
*****
 43 48 0 0 0
SMALL
GASTEIGER

@<TRIPOS>ATOM
      1 N          63.0762   88.1767   13.2178 N.pl3   1  UNL1       -0.2801
      2 H          63.2051   87.2176   13.3984 H       1  UNL1        0.1552
      3 C          61.5302   87.7446   11.1749 C.ar    1  UNL1        0.1477
      4 C          62.5027   88.6224   11.9054 C.ar    1  UNL1        0.0846
      5 C          62.9018   89.9461   11.3235 C.ar    1  UNL1        0.0174
      6 C          62.3283   90.3919   10.0110 C.ar    1  UNL1       -0.0031
      7 C          61.3558   89.5139    9.2806 C.ar    1  UNL1       -0.0218
      8 C          60.9568   88.1904    9.8625 C.ar    1  UNL1        0.0091
      9 C          60.0101   87.1700    9.3033 C.3     1  UNL1        0.0292
     10 C          59.2287   87.2213    8.0238 C.3     1  UNL1        0.0062
     11 C          59.2011   88.3056    6.9878 C.3     1  UNL1        0.0166
     12 C          59.9478   89.6065    6.9752 C.3     1  UNL1        0.0619
     13 C          60.9068   90.1442    7.9956 C.3     1  UNL1        0.0421
     14 N          59.7033   90.4857    5.7849 N.3     1  UNL1       -0.2713
     15 C          58.3117   90.9455    5.4652 C.3     1  UNL1        0.0896
     16 C          58.0673   91.8248    4.2747 C.3     1  UNL1        0.0897
     17 N          59.2143   92.2445    3.4040 N.3     1  UNL1       -0.2691
     18 C          58.9698   93.1237    2.2137 C.3     1  UNL1        0.0897
     19 C          60.6059   91.7847    3.7237 C.3     1  UNL1        0.0897
     20 C          60.8504   90.9054    4.9141 C.3     1  UNL1        0.0896
     21 C          62.0397   85.2356   11.6171 C.3     1  UNL1        0.2525
     22 O          61.1311   86.4209   11.7569 O.3     1  UNL1       -0.4705
     23 C          63.4533   89.1925   14.2551 C.ar    1  UNL1        0.2219
     24 N          63.0027   89.0174   15.6752 N.ar    1  UNL1       -0.2110
     25 C          63.3798   90.0331   16.7124 C.ar    1  UNL1        0.1160
     26 C          64.2076   91.2241   16.3298 C.ar    1  UNL1        0.1082
     27 CL         64.5847   92.2398   17.3671 Cl      1  UNL1       -0.0777
     28 C          64.6582   91.3993   14.9098 C.ar    1  UNL1        0.1435
     29 N          64.2811   90.3835   13.8725 N.ar    1  UNL1       -0.1979
     30 N          65.4860   92.5902   14.5271 N.pl3   1  UNL1       -0.3181
     31 H          65.5922   93.3389   15.1575 H       1  UNL1        0.1482
     32 C          66.1520   92.6404   13.1841 C.3     1  UNL1        0.0832
     33 C          67.5968   92.3497   12.9050 C.3     1  UNL1        0.0984
     34 C          67.8279   92.5197   11.4327 C.3     1  UNL1        0.0323
     35 C          67.1660   92.8694   10.1328 C.2     1  UNL1       -0.0304
     36 C          65.7211   93.1601   10.4119 C.2     1  UNL1       -0.0294
     37 C          65.4900   92.9901   11.8842 C.3     1  UNL1        0.0404
     38 C          66.7922   92.5943   12.5151 C.3     1  UNL1        0.0109
     39 C          68.6294   91.9578   13.9200 C.2     1  UNL1        0.2208
     40 N          70.0827   91.9542   13.5486 N.am    1  UNL1       -0.3288
     41 O          68.2087   91.5694   15.3064 O.2     1  UNL1       -0.2753
     42 H          70.3588   92.2091   12.6386 H       1  UNL1        0.1449
     43 H          70.7604   91.6970   14.2148 H       1  UNL1        0.1449
@<TRIPOS>BOND
     1    21    22    1
     2    22     3    1
     3     3     4   ar
     4     4     1    1
     5     1    23    1
     6    23    24   ar
     7    24    25   ar
     8    25    26   ar
     9    26    27    1
    10    26    28   ar
    11    28    30    1
    12    32    30    1
    13    32    33    1
    14    33    39    1
    15    39    40   am
    16    39    41    2
    17    33    34    1
    18    34    35    1
    19    35    36    2
    20    37    36    1
    21    37    38    1
    22    28    29   ar
    23     4     5   ar
    24     5     6   ar
    25     6     7   ar
    26     7     8   ar
    27     8     9    1
    28     9    10    1
    29    10    11    1
    30    11    12    1
    31    12    14    1
    32    14    15    1
    33    15    16    1
    34    16    17    1
    35    17    18    1
    36    17    19    1
    37    19    20    1
    38    12    13    1
    39     8     3   ar
    40    20    14    1
    41    29    23   ar
    42    13     7    1
    43    37    32    1
    44    38    34    1
    45     1     2    1
    46    30    31    1
    47    40    42    1
    48    40    43    1
