@<TRIPOS>MOLECULE
*****
 50 54 0 0 0
SMALL
GASTEIGER

@<TRIPOS>ATOM
      1 C          64.1876   90.5571   14.5391 C.3     1  UNL1        0.1916
      2 O          64.2071   89.4001   13.5846 O.3     1  UNL1       -0.3147
      3 C          63.8429   88.0262   14.0638 C.3     1  UNL1        0.3183
      4 C          63.4593   87.8092   15.4977 C.3     1  UNL1        0.2105
      5 O          63.0952   86.4353   15.9770 O.3     1  UNL1       -0.3766
      6 C          63.4399   88.9662   16.4522 C.3     1  UNL1        0.1729
      7 O          63.0563   88.7492   17.8860 O.3     1  UNL1       -0.3793
      8 C          63.8041   90.3401   15.9728 C.3     1  UNL1        0.1707
      9 O          63.7846   91.4971   16.9273 O.3     1  UNL1       -0.3794
     10 H          63.1586   85.8083   15.2396 H       1  UNL1        0.2107
     11 H          63.0950   89.5933   18.3623 H       1  UNL1        0.2105
     12 H          63.5172   91.1865   17.8065 H       1  UNL1        0.2105
     13 C          64.5518   91.9310   14.0598 C.3     1  UNL1        0.2407
     14 O          65.5128   92.7702   14.8485 O.3     1  UNL1       -0.4427
     15 O          67.5860   94.2757   14.4179 O.2     1  UNL1       -0.2449
     16 C          66.9295   92.9275   14.3813 C.2     1  UNL1        0.3415
     17 C          67.6897   91.7366   13.8776 C.2     1  UNL1        0.0819
     18 C          67.9570   91.5835   12.4096 C.2     1  UNL1        0.0067
     19 C          67.4641   92.6214   11.4453 C.ar    1  UNL1        0.0004
     20 C          66.1605   93.3197   11.6965 C.ar    1  UNL1        0.0031
     21 C          65.6676   94.3575   10.7323 C.ar    1  UNL1        0.0366
     22 C          66.4783   94.6972    9.5168 C.ar    1  UNL1        0.1337
     23 O          65.9853   95.7351    8.5525 O.3     1  UNL1       -0.5055
     24 C          67.7818   93.9989    9.2655 C.ar    1  UNL1        0.0366
     25 C          68.2748   92.9610   10.2298 C.ar    1  UNL1        0.0031
     26 H          65.1710   96.1713    8.7094 H       1  UNL1        0.2922
     27 O          63.8624   86.8692   13.1093 O.3     1  UNL1       -0.4441
     28 C          62.8643   86.8022   11.9916 C.ar    1  UNL1        0.2144
     29 C          62.2905   85.4798   11.5767 C.ar    1  UNL1        0.1822
     30 O          61.2925   85.4128   10.4590 O.2     1  UNL1       -0.4500
     31 C          60.8681   86.6682    9.7561 C.ar    1  UNL1        0.1545
     32 C          59.8701   86.6012    8.6384 C.ar    1  UNL1        0.0744
     33 C          59.4457   87.8566    7.9356 C.ar    1  UNL1        0.1397
     34 O          58.4476   87.7896    6.8178 O.3     1  UNL1       -0.5053
     35 C          60.0195   89.1789    8.3505 C.ar    1  UNL1        0.0735
     36 C          61.0176   89.2460    9.4682 C.ar    1  UNL1        0.1428
     37 O          61.5913   90.5683    9.8831 O.3     1  UNL1       -0.5052
     38 C          61.4419   87.9906   10.1710 C.ar    1  UNL1        0.1104
     39 C          62.4400   88.0576   11.2888 C.ar    1  UNL1        0.2382
     40 O          63.0137   89.3799   11.7037 O.2     1  UNL1       -0.2830
     41 H          58.0892   86.9636    6.5586 H       1  UNL1        0.2922
     42 H          61.3262   91.3525    9.4441 H       1  UNL1        0.2922
     43 C          62.7149   84.2245   12.2795 C.ar    1  UNL1        0.0379
     44 C          62.3900   84.0312   13.7312 C.ar    1  UNL1        0.0062
     45 C          62.8143   82.7758   14.4340 C.ar    1  UNL1        0.0367
     46 C          63.5635   81.7137   13.6852 C.ar    1  UNL1        0.1337
     47 O          63.9878   80.4583   14.3881 O.3     1  UNL1       -0.5055
     48 C          63.8884   81.9070   12.2337 C.ar    1  UNL1        0.0367
     49 C          63.4641   83.1624   11.5308 C.ar    1  UNL1        0.0062
     50 H          63.7848   80.3376   15.2949 H       1  UNL1        0.2922
@<TRIPOS>BOND
     1    15    16    2
     2    16    17    1
     3    17    18    2
     4    18    19    1
     5    19    20   ar
     6    20    21   ar
     7    21    22   ar
     8    22    23    1
     9    22    24   ar
    10    24    25   ar
    11    16    14    1
    12    14    13    1
    13     1    13    1
    14     1     2    1
    15     2     3    1
    16     3    27    1
    17    27    28    1
    18    28    29   ar
    19    29    43    1
    20    43    44   ar
    21    44    45   ar
    22    45    46   ar
    23    46    47    1
    24    46    48   ar
    25    48    49   ar
    26    29    30   ar
    27    30    31   ar
    28    31    32   ar
    29    32    33   ar
    30    33    34    1
    31    33    35   ar
    32    35    36   ar
    33    36    37    1
    34    36    38   ar
    35    38    39   ar
    36    39    40    2
    37     3     4    1
    38     4     5    1
    39     4     6    1
    40     6     7    1
    41     6     8    1
    42     8     9    1
    43    25    19   ar
    44     8     1    1
    45    39    28   ar
    46    49    43   ar
    47    38    31   ar
    48    23    26    1
    49    47    50    1
    50    34    41    1
    51    37    42    1
    52     5    10    1
    53     7    11    1
    54     9    12    1
@<TRIPOS>MOLECULE
*****
 50 54 0 0 0
SMALL
GASTEIGER

@<TRIPOS>ATOM
      1 C          64.0369   86.2891   14.4410 C.3     1  UNL1        0.1916
      2 O          63.4621   87.3792   13.5859 O.3     1  UNL1       -0.3147
      3 C          62.7924   88.5594   14.2250 C.3     1  UNL1        0.3183
      4 C          62.6975   88.6496   15.7193 C.3     1  UNL1        0.2105
      5 O          62.0278   89.8298   16.3585 O.3     1  UNL1       -0.3766
      6 C          63.2723   87.5594   16.5744 C.3     1  UNL1        0.1729
      7 O          63.1774   87.6495   18.0687 O.3     1  UNL1       -0.3793
      8 C          63.9420   86.3792   15.9352 C.3     1  UNL1        0.1707
      9 O          64.5169   85.2891   16.7903 O.3     1  UNL1       -0.3794
     10 H          61.7145   90.4362   15.6692 H       1  UNL1        0.2107
     11 H          63.5950   86.8698   18.4668 H       1  UNL1        0.2105
     12 H          64.3716   85.5012   17.7256 H       1  UNL1        0.2105
     13 C          64.7067   85.1089   13.8018 C.3     1  UNL1        0.2407
     14 O          64.7011   83.7779   14.4936 O.3     1  UNL1       -0.4427
     15 O          62.2107   83.7503   15.2333 O.2     1  UNL1       -0.2449
     16 C          63.4107   83.0372   14.6844 C.2     1  UNL1        0.3415
     17 C          63.3205   81.5834   14.3263 C.2     1  UNL1        0.0819
     18 C          63.2726   81.1673   12.8860 C.2     1  UNL1        0.0067
     19 C          63.3149   82.2051   11.8038 C.ar    1  UNL1        0.0004
     20 C          64.3122   82.0865   10.6895 C.ar    1  UNL1        0.0031
     21 C          64.3546   83.1243    9.6073 C.ar    1  UNL1        0.0366
     22 C          63.3997   84.2807    9.6393 C.ar    1  UNL1        0.1337
     23 O          63.4421   85.3185    8.5570 O.3     1  UNL1       -0.5055
     24 C          62.4024   84.3992   10.7534 C.ar    1  UNL1        0.0366
     25 C          62.3600   83.3614   11.8357 C.ar    1  UNL1        0.0031
     26 H          64.0651   85.2444    7.8610 H       1  UNL1        0.2922
     27 O          62.2176   89.6495   13.3699 O.3     1  UNL1       -0.4441
     28 C          63.1276   90.5343   12.5704 C.ar    1  UNL1        0.2144
     29 C          63.0582   90.5233   11.0721 C.ar    1  UNL1        0.1822
     30 O          63.9682   91.4080   10.2726 O.2     1  UNL1       -0.4500
     31 C          64.9476   92.3038   10.9715 C.ar    1  UNL1        0.1545
     32 C          65.8576   93.1885   10.1721 C.ar    1  UNL1        0.0744
     33 C          66.8369   94.0842   10.8710 C.ar    1  UNL1        0.1397
     34 O          67.7470   94.9690   10.0716 O.3     1  UNL1       -0.5053
     35 C          66.9063   94.0952   12.3694 C.ar    1  UNL1        0.0735
     36 C          65.9963   93.2105   13.1688 C.ar    1  UNL1        0.1428
     37 O          66.0656   93.2215   14.6672 O.3     1  UNL1       -0.5052
     38 C          65.0170   92.3148   12.4699 C.ar    1  UNL1        0.1104
     39 C          64.1069   91.4300   13.2693 C.ar    1  UNL1        0.2382
     40 O          64.1763   91.4410   14.7677 O.2     1  UNL1       -0.2830
     41 H          67.7037   94.9622    9.1356 H       1  UNL1        0.2922
     42 H          66.6774   93.7811   15.1038 H       1  UNL1        0.2922
     43 C          62.0789   89.6275   10.3732 C.ar    1  UNL1        0.0379
     44 C          62.3720   88.1635   10.2291 C.ar    1  UNL1        0.0062
     45 C          61.3927   87.2677    9.5302 C.ar    1  UNL1        0.0367
     46 C          60.1202   87.8360    8.9753 C.ar    1  UNL1        0.1337
     47 O          59.1409   86.9402    8.2763 O.3     1  UNL1       -0.5055
     48 C          59.8271   89.3000    9.1193 C.ar    1  UNL1        0.0367
     49 C          60.8064   90.1958    9.8182 C.ar    1  UNL1        0.0062
     50 H          59.3240   86.0256    8.1864 H       1  UNL1        0.2922
@<TRIPOS>BOND
     1    15    16    2
     2    16    17    1
     3    17    18    2
     4    18    19    1
     5    19    20   ar
     6    20    21   ar
     7    21    22   ar
     8    22    23    1
     9    22    24   ar
    10    24    25   ar
    11    16    14    1
    12    14    13    1
    13     1    13    1
    14     1     2    1
    15     2     3    1
    16     3    27    1
    17    27    28    1
    18    28    29   ar
    19    29    43    1
    20    43    44   ar
    21    44    45   ar
    22    45    46   ar
    23    46    47    1
    24    46    48   ar
    25    48    49   ar
    26    29    30   ar
    27    30    31   ar
    28    31    32   ar
    29    32    33   ar
    30    33    34    1
    31    33    35   ar
    32    35    36   ar
    33    36    37    1
    34    36    38   ar
    35    38    39   ar
    36    39    40    2
    37     3     4    1
    38     4     5    1
    39     4     6    1
    40     6     7    1
    41     6     8    1
    42     8     9    1
    43    25    19   ar
    44     8     1    1
    45    39    28   ar
    46    49    43   ar
    47    38    31   ar
    48    23    26    1
    49    47    50    1
    50    34    41    1
    51    37    42    1
    52     5    10    1
    53     7    11    1
    54     9    12    1
@<TRIPOS>MOLECULE
*****
 50 54 0 0 0
SMALL
GASTEIGER

@<TRIPOS>ATOM
      1 C          62.1739   86.8535   10.3956 C.3     1  UNL1        0.1916
      2 O          62.4167   87.4614   11.7452 O.3     1  UNL1       -0.3147
      3 C          61.9395   88.8531   12.0378 C.3     1  UNL1        0.3183
      4 C          61.2196   89.6369   10.9807 C.3     1  UNL1        0.2105
      5 O          60.7424   91.0285   11.2732 O.3     1  UNL1       -0.3766
      6 C          60.9768   89.0289    9.6310 C.3     1  UNL1        0.1729
      7 O          60.2569   89.8126    8.5739 O.3     1  UNL1       -0.3793
      8 C          61.4540   87.6372    9.3385 C.3     1  UNL1        0.1707
      9 O          61.2112   87.0293    7.9889 O.3     1  UNL1       -0.3794
     10 H          60.9784   91.2666   12.1834 H       1  UNL1        0.2107
     11 H          60.1842   89.2777    7.7680 H       1  UNL1        0.2105
     12 H          60.7375   87.6640    7.4289 H       1  UNL1        0.2105
     13 C          62.6511   85.4619   10.1031 C.3     1  UNL1        0.2407
     14 O          62.9606   84.5225   11.2309 O.3     1  UNL1       -0.4427
     15 O          63.5423   82.4043    9.8436 O.2     1  UNL1       -0.2449
     16 C          63.8317   83.3249   10.9918 C.2     1  UNL1        0.3415
     17 C          64.9921   83.0481   11.9011 C.2     1  UNL1        0.0819
     18 C          64.7924   82.2352   13.1458 C.2     1  UNL1        0.0067
     19 C          63.4322   81.6992   13.4812 C.ar    1  UNL1        0.0004
     20 C          63.0728   80.2878   13.1221 C.ar    1  UNL1        0.0031
     21 C          61.7126   79.7517   13.4575 C.ar    1  UNL1        0.0366
     22 C          60.7118   80.6270   14.1519 C.ar    1  UNL1        0.1337
     23 O          59.3516   80.0909   14.4873 O.3     1  UNL1       -0.5055
     24 C          61.0711   82.0383   14.5110 C.ar    1  UNL1        0.0366
     25 C          62.4314   82.5744   14.1756 C.ar    1  UNL1        0.0031
     26 H          59.1271   79.2092   14.2630 H       1  UNL1        0.2922
     27 O          62.1823   89.4610   13.3874 O.3     1  UNL1       -0.4441
     28 C          63.5481   89.9653   13.7481 C.ar    1  UNL1        0.2144
     29 C          64.4025   89.1940   14.7100 C.ar    1  UNL1        0.1822
     30 O          65.7683   89.6983   15.0708 O.2     1  UNL1       -0.4500
     31 C          66.2798   90.9739   14.4696 C.ar    1  UNL1        0.1545
     32 C          67.6457   91.4781   14.8304 C.ar    1  UNL1        0.0744
     33 C          68.1571   92.7537   14.2292 C.ar    1  UNL1        0.1397
     34 O          69.5230   93.2580   14.5899 O.3     1  UNL1       -0.5053
     35 C          67.3027   93.5249   13.2673 C.ar    1  UNL1        0.0735
     36 C          65.9369   93.0206   12.9066 C.ar    1  UNL1        0.1428
     37 O          65.0826   93.7919   11.9447 O.3     1  UNL1       -0.5052
     38 C          65.4255   91.7451   13.5077 C.ar    1  UNL1        0.1104
     39 C          64.0596   91.2408   13.1470 C.ar    1  UNL1        0.2382
     40 O          63.2052   92.0120   12.1851 O.2     1  UNL1       -0.2830
     41 H          70.0567   92.7762   15.1908 H       1  UNL1        0.2922
     42 H          65.4021   94.5887   11.5692 H       1  UNL1        0.2922
     43 C          63.8910   87.9185   15.3112 C.ar    1  UNL1        0.0379
     44 C          63.1094   87.9531   16.5910 C.ar    1  UNL1        0.0062
     45 C          62.5979   86.6776   17.1922 C.ar    1  UNL1        0.0367
     46 C          62.8680   85.3675   16.5136 C.ar    1  UNL1        0.1337
     47 O          62.3565   84.0919   17.1148 O.3     1  UNL1       -0.5055
     48 C          63.6496   85.3328   15.2338 C.ar    1  UNL1        0.0367
     49 C          64.1611   86.6084   14.6326 C.ar    1  UNL1        0.0062
     50 H          61.8683   84.1135   17.9142 H       1  UNL1        0.2922
@<TRIPOS>BOND
     1    15    16    2
     2    16    17    1
     3    17    18    2
     4    18    19    1
     5    19    20   ar
     6    20    21   ar
     7    21    22   ar
     8    22    23    1
     9    22    24   ar
    10    24    25   ar
    11    16    14    1
    12    14    13    1
    13     1    13    1
    14     1     2    1
    15     2     3    1
    16     3    27    1
    17    27    28    1
    18    28    29   ar
    19    29    43    1
    20    43    44   ar
    21    44    45   ar
    22    45    46   ar
    23    46    47    1
    24    46    48   ar
    25    48    49   ar
    26    29    30   ar
    27    30    31   ar
    28    31    32   ar
    29    32    33   ar
    30    33    34    1
    31    33    35   ar
    32    35    36   ar
    33    36    37    1
    34    36    38   ar
    35    38    39   ar
    36    39    40    2
    37     3     4    1
    38     4     5    1
    39     4     6    1
    40     6     7    1
    41     6     8    1
    42     8     9    1
    43    25    19   ar
    44     8     1    1
    45    39    28   ar
    46    49    43   ar
    47    38    31   ar
    48    23    26    1
    49    47    50    1
    50    34    41    1
    51    37    42    1
    52     5    10    1
    53     7    11    1
    54     9    12    1
@<TRIPOS>MOLECULE
*****
 50 54 0 0 0
SMALL
GASTEIGER

@<TRIPOS>ATOM
      1 C          65.9024   91.3005   13.0758 C.3     1  UNL1        0.1916
      2 O          65.0063   90.4292   12.2465 O.3     1  UNL1       -0.3147
      3 C          63.6895   89.9681   12.7973 C.3     1  UNL1        0.3183
      4 C          63.2687   90.3785   14.1774 C.3     1  UNL1        0.2105
      5 O          61.9519   89.9174   14.7282 O.3     1  UNL1       -0.3766
      6 C          64.1648   91.2498   15.0067 C.3     1  UNL1        0.1729
      7 O          63.7441   91.6602   16.3868 O.3     1  UNL1       -0.3793
      8 C          65.4817   91.7109   14.4559 C.3     1  UNL1        0.1707
      9 O          66.3778   92.5822   15.2851 O.3     1  UNL1       -0.3794
     10 H          61.5007   89.3669   14.0692 H       1  UNL1        0.2107
     11 H          64.4324   92.2176   16.7822 H       1  UNL1        0.2105
     12 H          65.9594   92.7522   16.1436 H       1  UNL1        0.2105
     13 C          67.2192   91.7615   12.5250 C.3     1  UNL1        0.2407
     14 O          67.2974   93.0337   11.7341 O.3     1  UNL1       -0.4427
     15 O          64.9029   93.6555   10.9403 O.2     1  UNL1       -0.2449
     16 C          66.1372   93.9846   11.7265 C.2     1  UNL1        0.3415
     17 C          66.2115   95.2645   12.5051 C.2     1  UNL1        0.0819
     18 C          66.1598   96.5818   11.7896 C.2     1  UNL1        0.0067
     19 C          66.0338   96.6191   10.2954 C.ar    1  UNL1        0.0004
     20 C          64.6892   96.8172    9.6607 C.ar    1  UNL1        0.0031
     21 C          64.5632   96.8545    8.1665 C.ar    1  UNL1        0.0366
     22 C          65.7819   96.6938    7.3069 C.ar    1  UNL1        0.1337
     23 O          65.6559   96.7311    5.8126 O.3     1  UNL1       -0.5055
     24 C          67.1265   96.4957    7.9414 C.ar    1  UNL1        0.0366
     25 C          67.2525   96.4583    9.4357 C.ar    1  UNL1        0.0031
     26 H          64.8159   96.8549    5.4162 H       1  UNL1        0.2922
     27 O          62.7934   89.0968   11.9680 O.3     1  UNL1       -0.4441
     28 C          62.8186   87.6079   12.1485 C.ar    1  UNL1        0.2144
     29 C          62.0680   86.7242   11.1969 C.ar    1  UNL1        0.1822
     30 O          62.0933   85.2353   11.3774 O.2     1  UNL1       -0.4500
     31 C          62.8691   84.6301   12.5096 C.ar    1  UNL1        0.1545
     32 C          62.8944   83.1413   12.6902 C.ar    1  UNL1        0.0744
     33 C          63.6702   82.5362   13.8224 C.ar    1  UNL1        0.1397
     34 O          63.6955   81.0472   14.0029 O.3     1  UNL1       -0.5053
     35 C          64.4208   83.4199   14.7740 C.ar    1  UNL1        0.0735
     36 C          64.3955   84.9088   14.5935 C.ar    1  UNL1        0.1428
     37 O          65.1461   85.7925   15.5451 O.3     1  UNL1       -0.5052
     38 C          63.6197   85.5139   13.4613 C.ar    1  UNL1        0.1104
     39 C          63.5944   87.0028   13.2807 C.ar    1  UNL1        0.2382
     40 O          64.3450   87.8865   14.2324 O.2     1  UNL1       -0.2830
     41 H          63.2266   80.4952   13.4085 H       1  UNL1        0.2922
     42 H          65.6307   85.4145   16.2524 H       1  UNL1        0.2922
     43 C          61.2922   87.3293   10.0647 C.ar    1  UNL1        0.0379
     44 C          61.1241   88.8176    9.9817 C.ar    1  UNL1        0.0062
     45 C          60.3483   89.4227    8.8495 C.ar    1  UNL1        0.0367
     46 C          59.7405   88.5396    7.8003 C.ar    1  UNL1        0.1337
     47 O          58.9647   89.1448    6.6681 O.3     1  UNL1       -0.5055
     48 C          59.9086   87.0514    7.8833 C.ar    1  UNL1        0.0367
     49 C          60.6845   86.4462    9.0155 C.ar    1  UNL1        0.0062
     50 H          58.8597   90.0745    6.6162 H       1  UNL1        0.2922
@<TRIPOS>BOND
     1    15    16    2
     2    16    17    1
     3    17    18    2
     4    18    19    1
     5    19    20   ar
     6    20    21   ar
     7    21    22   ar
     8    22    23    1
     9    22    24   ar
    10    24    25   ar
    11    16    14    1
    12    14    13    1
    13     1    13    1
    14     1     2    1
    15     2     3    1
    16     3    27    1
    17    27    28    1
    18    28    29   ar
    19    29    43    1
    20    43    44   ar
    21    44    45   ar
    22    45    46   ar
    23    46    47    1
    24    46    48   ar
    25    48    49   ar
    26    29    30   ar
    27    30    31   ar
    28    31    32   ar
    29    32    33   ar
    30    33    34    1
    31    33    35   ar
    32    35    36   ar
    33    36    37    1
    34    36    38   ar
    35    38    39   ar
    36    39    40    2
    37     3     4    1
    38     4     5    1
    39     4     6    1
    40     6     7    1
    41     6     8    1
    42     8     9    1
    43    25    19   ar
    44     8     1    1
    45    39    28   ar
    46    49    43   ar
    47    38    31   ar
    48    23    26    1
    49    47    50    1
    50    34    41    1
    51    37    42    1
    52     5    10    1
    53     7    11    1
    54     9    12    1
@<TRIPOS>MOLECULE
*****
 50 54 0 0 0
SMALL
GASTEIGER

@<TRIPOS>ATOM
      1 C          64.3166   86.3919   14.6294 C.3     1  UNL1        0.1916
      2 O          63.7356   87.4811   13.7774 O.3     1  UNL1       -0.3147
      3 C          62.8734   88.5398   14.3984 C.3     1  UNL1        0.3183
      4 C          62.5922   88.5094   15.8715 C.3     1  UNL1        0.2105
      5 O          61.7300   89.5681   16.4925 O.3     1  UNL1       -0.3766
      6 C          63.1732   87.4202   16.7236 C.3     1  UNL1        0.1729
      7 O          62.8920   87.3897   18.1966 O.3     1  UNL1       -0.3793
      8 C          64.0354   86.3614   16.1025 C.3     1  UNL1        0.1707
      9 O          64.6164   85.2722   16.9546 O.3     1  UNL1       -0.3794
     10 H          61.4386   90.1905   15.8079 H       1  UNL1        0.2107
     11 H          63.3394   86.6270   18.5955 H       1  UNL1        0.2105
     12 H          64.3391   85.3993   17.8754 H       1  UNL1        0.2105
     13 C          65.1787   85.3331   14.0085 C.3     1  UNL1        0.2407
     14 O          64.5520   84.0981   13.4323 O.3     1  UNL1       -0.4427
     15 O          62.2791   84.5569   12.2603 O.2     1  UNL1       -0.2449
     16 C          63.0586   83.9622   13.3955 C.2     1  UNL1        0.3415
     17 C          62.3447   83.2316   14.4940 C.2     1  UNL1        0.0819
     18 C          61.9663   81.7913   14.3143 C.2     1  UNL1        0.0067
     19 C          62.3019   81.0816   13.0362 C.ar    1  UNL1        0.0004
     20 C          62.2695   79.5830   12.9796 C.ar    1  UNL1        0.0031
     21 C          62.6050   78.8733   11.7015 C.ar    1  UNL1        0.0366
     22 C          62.9729   79.6621   10.4799 C.ar    1  UNL1        0.1337
     23 O          63.3084   78.9523    9.2017 O.3     1  UNL1       -0.5055
     24 C          63.0053   81.1606   10.5364 C.ar    1  UNL1        0.0366
     25 C          62.6698   81.8704   11.8146 C.ar    1  UNL1        0.0031
     26 H          63.2882   78.0162    9.1664 H       1  UNL1        0.2922
     27 O          62.2924   89.6291   13.5463 O.3     1  UNL1       -0.4441
     28 C          63.1933   90.4865   12.7078 C.ar    1  UNL1        0.2144
     29 C          63.1477   90.3837   11.2120 C.ar    1  UNL1        0.1822
     30 O          64.0486   91.2412   10.3735 O.2     1  UNL1       -0.4500
     31 C          64.9952   92.2015   11.0308 C.ar    1  UNL1        0.1545
     32 C          65.8961   93.0589   10.1923 C.ar    1  UNL1        0.0744
     33 C          66.8426   94.0192   10.8496 C.ar    1  UNL1        0.1397
     34 O          67.7435   94.8767   10.0111 O.3     1  UNL1       -0.5053
     35 C          66.8881   94.1219   12.3454 C.ar    1  UNL1        0.0735
     36 C          65.9872   93.2645   13.1839 C.ar    1  UNL1        0.1428
     37 O          66.0328   93.3673   14.6797 O.3     1  UNL1       -0.5052
     38 C          65.0408   92.3043   12.5266 C.ar    1  UNL1        0.1104
     39 C          64.1398   91.4467   13.3651 C.ar    1  UNL1        0.2382
     40 O          64.1854   91.5495   14.8609 O.2     1  UNL1       -0.2830
     41 H          67.7151   94.8125    9.0768 H       1  UNL1        0.2922
     42 H          66.6241   93.9671   15.0903 H       1  UNL1        0.2922
     43 C          62.2012   89.4235   10.5547 C.ar    1  UNL1        0.0379
     44 C          62.4291   87.9457   10.6740 C.ar    1  UNL1        0.0062
     45 C          61.4826   86.9854   10.0167 C.ar    1  UNL1        0.0367
     46 C          60.3082   87.5030    9.2401 C.ar    1  UNL1        0.1337
     47 O          59.3617   86.5427    8.5828 O.3     1  UNL1       -0.5055
     48 C          60.0804   88.9807    9.1208 C.ar    1  UNL1        0.0367
     49 C          61.0269   89.9410    9.7781 C.ar    1  UNL1        0.0062
     50 H          59.5041   85.6195    8.6573 H       1  UNL1        0.2922
@<TRIPOS>BOND
     1    15    16    2
     2    16    17    1
     3    17    18    2
     4    18    19    1
     5    19    20   ar
     6    20    21   ar
     7    21    22   ar
     8    22    23    1
     9    22    24   ar
    10    24    25   ar
    11    16    14    1
    12    14    13    1
    13     1    13    1
    14     1     2    1
    15     2     3    1
    16     3    27    1
    17    27    28    1
    18    28    29   ar
    19    29    43    1
    20    43    44   ar
    21    44    45   ar
    22    45    46   ar
    23    46    47    1
    24    46    48   ar
    25    48    49   ar
    26    29    30   ar
    27    30    31   ar
    28    31    32   ar
    29    32    33   ar
    30    33    34    1
    31    33    35   ar
    32    35    36   ar
    33    36    37    1
    34    36    38   ar
    35    38    39   ar
    36    39    40    2
    37     3     4    1
    38     4     5    1
    39     4     6    1
    40     6     7    1
    41     6     8    1
    42     8     9    1
    43    25    19   ar
    44     8     1    1
    45    39    28   ar
    46    49    43   ar
    47    38    31   ar
    48    23    26    1
    49    47    50    1
    50    34    41    1
    51    37    42    1
    52     5    10    1
    53     7    11    1
    54     9    12    1
@<TRIPOS>MOLECULE
*****
 50 54 0 0 0
SMALL
GASTEIGER

@<TRIPOS>ATOM
      1 C          63.8002   86.2416   14.0003 C.3     1  UNL1        0.1916
      2 O          63.2770   87.4527   13.2865 O.3     1  UNL1       -0.3147
      3 C          62.8121   88.6434   14.0714 C.3     1  UNL1        0.3183
      4 C          62.8703   88.6230   15.5702 C.3     1  UNL1        0.2105
      5 O          62.4054   89.8137   16.3551 O.3     1  UNL1       -0.3766
      6 C          63.3935   87.4119   16.2840 C.3     1  UNL1        0.1729
      7 O          63.4517   87.3915   17.7827 O.3     1  UNL1       -0.3793
      8 C          63.8584   86.2212   15.4990 C.3     1  UNL1        0.1707
      9 O          64.3816   85.0101   16.2128 O.3     1  UNL1       -0.3794
     10 H          62.1005   90.5038   15.7454 H       1  UNL1        0.2107
     11 H          63.8121   86.5416   18.0807 H       1  UNL1        0.2105
     12 H          64.3512   85.1609   17.1705 H       1  UNL1        0.2105
     13 C          64.2651   85.0509   13.2154 C.3     1  UNL1        0.2407
     14 O          63.4793   84.5830   12.0265 O.3     1  UNL1       -0.4427
     15 O          63.3840   83.1906    9.8351 O.2     1  UNL1       -0.2449
     16 C          64.0043   83.4671   11.1725 C.2     1  UNL1        0.3415
     17 C          65.1497   82.6279   11.6559 C.2     1  UNL1        0.0819
     18 C          64.9049   81.5152   12.6316 C.2     1  UNL1        0.0067
     19 C          63.5146   81.2419   13.1239 C.ar    1  UNL1        0.0004
     20 C          62.7720   80.0317   12.6399 C.ar    1  UNL1        0.0031
     21 C          61.3817   79.7583   13.1322 C.ar    1  UNL1        0.0366
     22 C          60.7340   80.6951   14.1084 C.ar    1  UNL1        0.1337
     23 O          59.3437   80.4216   14.6007 O.3     1  UNL1       -0.5055
     24 C          61.4766   81.9052   14.5924 C.ar    1  UNL1        0.0366
     25 C          62.8669   82.1786   14.1001 C.ar    1  UNL1        0.0031
     26 H          58.8798   79.6657   14.2984 H       1  UNL1        0.2922
     27 O          62.2889   89.8545   13.3576 O.3     1  UNL1       -0.4441
     28 C          63.2122   90.6884   12.5197 C.ar    1  UNL1        0.2144
     29 C          63.1715   90.5797   11.0242 C.ar    1  UNL1        0.1822
     30 O          64.0948   91.4136   10.1862 O.2     1  UNL1       -0.4500
     31 C          65.0588   92.3562   10.8438 C.ar    1  UNL1        0.1545
     32 C          65.9821   93.1900   10.0059 C.ar    1  UNL1        0.0744
     33 C          66.9460   94.1325   10.6635 C.ar    1  UNL1        0.1397
     34 O          67.8694   94.9665    9.8255 O.3     1  UNL1       -0.5053
     35 C          66.9867   94.2411   12.1590 C.ar    1  UNL1        0.0735
     36 C          66.0635   93.4073   12.9969 C.ar    1  UNL1        0.1428
     37 O          66.1041   93.5159   14.4924 O.3     1  UNL1       -0.5052
     38 C          65.0995   92.4648   12.3393 C.ar    1  UNL1        0.1104
     39 C          64.1761   91.6308   13.1772 C.ar    1  UNL1        0.2382
     40 O          64.2168   91.7394   14.6728 O.2     1  UNL1       -0.2830
     41 H          67.8440   94.8986    8.8913 H       1  UNL1        0.2922
     42 H          66.7063   94.1046   14.9032 H       1  UNL1        0.2922
     43 C          62.2075   89.6373   10.3666 C.ar    1  UNL1        0.0379
     44 C          60.8495   90.1215    9.9524 C.ar    1  UNL1        0.0062
     45 C          59.8856   89.1790    9.2948 C.ar    1  UNL1        0.0367
     46 C          60.2795   87.7523    9.0514 C.ar    1  UNL1        0.1337
     47 O          59.3155   86.8098    8.3937 O.3     1  UNL1       -0.5055
     48 C          61.6375   87.2681    9.4655 C.ar    1  UNL1        0.0367
     49 C          62.6015   88.2105   10.1231 C.ar    1  UNL1        0.0062
     50 H          58.4672   87.1123    8.1351 H       1  UNL1        0.2922
@<TRIPOS>BOND
     1    15    16    2
     2    16    17    1
     3    17    18    2
     4    18    19    1
     5    19    20   ar
     6    20    21   ar
     7    21    22   ar
     8    22    23    1
     9    22    24   ar
    10    24    25   ar
    11    16    14    1
    12    14    13    1
    13     1    13    1
    14     1     2    1
    15     2     3    1
    16     3    27    1
    17    27    28    1
    18    28    29   ar
    19    29    43    1
    20    43    44   ar
    21    44    45   ar
    22    45    46   ar
    23    46    47    1
    24    46    48   ar
    25    48    49   ar
    26    29    30   ar
    27    30    31   ar
    28    31    32   ar
    29    32    33   ar
    30    33    34    1
    31    33    35   ar
    32    35    36   ar
    33    36    37    1
    34    36    38   ar
    35    38    39   ar
    36    39    40    2
    37     3     4    1
    38     4     5    1
    39     4     6    1
    40     6     7    1
    41     6     8    1
    42     8     9    1
    43    25    19   ar
    44     8     1    1
    45    39    28   ar
    46    49    43   ar
    47    38    31   ar
    48    23    26    1
    49    47    50    1
    50    34    41    1
    51    37    42    1
    52     5    10    1
    53     7    11    1
    54     9    12    1
@<TRIPOS>MOLECULE
*****
 50 54 0 0 0
SMALL
GASTEIGER

@<TRIPOS>ATOM
      1 C          63.3510   85.4035   15.4424 C.3     1  UNL1        0.1916
      2 O          63.8002   86.2163   14.2645 O.3     1  UNL1       -0.3147
      3 C          63.9342   87.7051   14.3878 C.3     1  UNL1        0.3183
      4 C          63.6189   88.3813   15.6892 C.3     1  UNL1        0.2105
      5 O          63.7529   89.8702   15.8126 O.3     1  UNL1       -0.3766
      6 C          63.1697   87.5685   16.8672 C.3     1  UNL1        0.1729
      7 O          62.8545   88.2446   18.1685 O.3     1  UNL1       -0.3793
      8 C          63.0357   86.0796   16.7438 C.3     1  UNL1        0.1707
      9 O          62.5865   85.2668   17.9217 O.3     1  UNL1       -0.3794
     10 H          64.0509   90.2392   14.9665 H       1  UNL1        0.2107
     11 H          62.5812   87.5801   18.8202 H       1  UNL1        0.2105
     12 H          62.4259   85.8537   18.6771 H       1  UNL1        0.2105
     13 C          63.2170   83.9146   15.3191 C.3     1  UNL1        0.2407
     14 O          62.0311   83.3240   14.6157 O.3     1  UNL1       -0.4427
     15 O          60.6005   81.2069   14.1451 O.2     1  UNL1       -0.2449
     16 C          61.9300   81.8384   14.4341 C.2     1  UNL1        0.3415
     17 C          63.1584   80.9844   14.5416 C.2     1  UNL1        0.0819
     18 C          64.1812   81.0002   13.4444 C.2     1  UNL1        0.0067
     19 C          63.9755   81.8700   12.2399 C.ar    1  UNL1        0.0004
     20 C          64.6642   83.1994   12.1482 C.ar    1  UNL1        0.0031
     21 C          64.4585   84.0693   10.9436 C.ar    1  UNL1        0.0366
     22 C          63.5640   83.6097    9.8306 C.ar    1  UNL1        0.1337
     23 O          63.3583   84.4796    8.6260 O.3     1  UNL1       -0.5055
     24 C          62.8753   82.2804    9.9222 C.ar    1  UNL1        0.0366
     25 C          63.0810   81.4105   11.1269 C.ar    1  UNL1        0.0031
     26 H          63.7886   85.3100    8.5688 H       1  UNL1        0.2922
     27 O          64.3834   88.5179   13.2099 O.3     1  UNL1       -0.4441
     28 C          63.4323   88.7958   12.0838 C.ar    1  UNL1        0.2144
     29 C          63.3514   90.1720   11.4926 C.ar    1  UNL1        0.1822
     30 O          62.4003   90.4499   10.3666 O.2     1  UNL1       -0.4500
     31 C          61.5299   89.3515    9.8317 C.ar    1  UNL1        0.1545
     32 C          60.5787   89.6294    8.7056 C.ar    1  UNL1        0.0744
     33 C          59.7084   88.5310    8.1708 C.ar    1  UNL1        0.1397
     34 O          58.7572   88.8089    7.0446 O.3     1  UNL1       -0.5053
     35 C          59.7892   87.1548    8.7619 C.ar    1  UNL1        0.0735
     36 C          60.7404   86.8769    9.8880 C.ar    1  UNL1        0.1428
     37 O          60.8212   85.5007   10.4792 O.3     1  UNL1       -0.5052
     38 C          61.6107   87.9753   10.4229 C.ar    1  UNL1        0.1104
     39 C          62.5619   87.6974   11.5490 C.ar    1  UNL1        0.2382
     40 O          62.6428   86.3212   12.1402 O.2     1  UNL1       -0.2830
     41 H          58.7067   89.6685    6.6753 H       1  UNL1        0.2922
     42 H          60.2775   84.8146   10.1451 H       1  UNL1        0.2922
     43 C          64.2218   91.2703   12.0275 C.ar    1  UNL1        0.0379
     44 C          64.5684   91.3095   13.4864 C.ar    1  UNL1        0.0062
     45 C          65.4388   92.4078   14.0213 C.ar    1  UNL1        0.0367
     46 C          65.9625   93.4671   13.0973 C.ar    1  UNL1        0.1337
     47 O          66.8328   94.5654   13.6323 O.3     1  UNL1       -0.5055
     48 C          65.6159   93.4279   11.6385 C.ar    1  UNL1        0.0367
     49 C          64.7455   92.3296   11.1035 C.ar    1  UNL1        0.0062
     50 H          67.0494   94.5899   14.5436 H       1  UNL1        0.2922
@<TRIPOS>BOND
     1    15    16    2
     2    16    17    1
     3    17    18    2
     4    18    19    1
     5    19    20   ar
     6    20    21   ar
     7    21    22   ar
     8    22    23    1
     9    22    24   ar
    10    24    25   ar
    11    16    14    1
    12    14    13    1
    13     1    13    1
    14     1     2    1
    15     2     3    1
    16     3    27    1
    17    27    28    1
    18    28    29   ar
    19    29    43    1
    20    43    44   ar
    21    44    45   ar
    22    45    46   ar
    23    46    47    1
    24    46    48   ar
    25    48    49   ar
    26    29    30   ar
    27    30    31   ar
    28    31    32   ar
    29    32    33   ar
    30    33    34    1
    31    33    35   ar
    32    35    36   ar
    33    36    37    1
    34    36    38   ar
    35    38    39   ar
    36    39    40    2
    37     3     4    1
    38     4     5    1
    39     4     6    1
    40     6     7    1
    41     6     8    1
    42     8     9    1
    43    25    19   ar
    44     8     1    1
    45    39    28   ar
    46    49    43   ar
    47    38    31   ar
    48    23    26    1
    49    47    50    1
    50    34    41    1
    51    37    42    1
    52     5    10    1
    53     7    11    1
    54     9    12    1
@<TRIPOS>MOLECULE
*****
 50 54 0 0 0
SMALL
GASTEIGER

@<TRIPOS>ATOM
      1 C          65.6993   90.8999   14.2735 C.3     1  UNL1        0.1916
      2 O          65.3514   89.5730   13.6665 O.3     1  UNL1       -0.3147
      3 C          64.2122   88.7701   14.2210 C.3     1  UNL1        0.3183
      4 C          63.4209   89.2940   15.3827 C.3     1  UNL1        0.2105
      5 O          62.2817   88.4910   15.9373 O.3     1  UNL1       -0.3766
      6 C          63.7688   90.6208   15.9897 C.3     1  UNL1        0.1729
      7 O          62.9775   91.1447   17.1514 O.3     1  UNL1       -0.3793
      8 C          64.9080   91.4238   15.4351 C.3     1  UNL1        0.1707
      9 O          65.2559   92.7506   16.0422 O.3     1  UNL1       -0.3794
     10 H          62.1923   87.6665   15.4342 H       1  UNL1        0.2107
     11 H          63.3304   92.0073   17.4202 H       1  UNL1        0.2105
     12 H          64.6513   92.9384   16.7771 H       1  UNL1        0.2105
     13 C          66.8384   91.7028   13.7190 C.3     1  UNL1        0.2407
     14 O          66.6887   93.1828   13.5257 O.3     1  UNL1       -0.4427
     15 O          64.8111   92.7950   11.7723 O.2     1  UNL1       -0.2449
     16 C          65.7862   93.7112   12.4503 C.2     1  UNL1        0.3415
     17 C          65.8587   95.1558   12.0532 C.2     1  UNL1        0.0819
     18 C          66.6445   95.5620   10.8418 C.2     1  UNL1        0.0067
     19 C          67.3576   94.5236   10.0275 C.ar    1  UNL1        0.0004
     20 C          67.6494   94.7771    8.5781 C.ar    1  UNL1        0.0031
     21 C          68.3626   93.7387    7.7639 C.ar    1  UNL1        0.0366
     22 C          68.7840   92.4467    8.3990 C.ar    1  UNL1        0.1337
     23 O          69.4973   91.4083    7.5847 O.3     1  UNL1       -0.5055
     24 C          68.4923   92.1933    9.8483 C.ar    1  UNL1        0.0366
     25 C          67.7791   93.2317   10.6626 C.ar    1  UNL1        0.0031
     26 H          69.6795   91.5667    6.6793 H       1  UNL1        0.2922
     27 O          63.8644   87.4433   13.6140 O.3     1  UNL1       -0.4441
     28 C          62.9532   87.3786   12.4243 C.ar    1  UNL1        0.2144
     29 C          62.4861   86.0497   11.9086 C.ar    1  UNL1        0.1822
     30 O          61.5749   85.9850   10.7189 O.2     1  UNL1       -0.4500
     31 C          61.1307   87.2493   10.0448 C.ar    1  UNL1        0.1545
     32 C          60.2195   87.1846    8.8551 C.ar    1  UNL1        0.0744
     33 C          59.7753   88.4489    8.1810 C.ar    1  UNL1        0.1397
     34 O          58.8640   88.3842    6.9913 O.3     1  UNL1       -0.5053
     35 C          60.2423   89.7778    8.6967 C.ar    1  UNL1        0.0735
     36 C          61.1535   89.8424    9.8864 C.ar    1  UNL1        0.1428
     37 O          61.6205   91.1713   10.4021 O.3     1  UNL1       -0.5052
     38 C          61.5977   88.5782   10.5605 C.ar    1  UNL1        0.1104
     39 C          62.5090   88.6428   11.7502 C.ar    1  UNL1        0.2382
     40 O          62.9760   89.9717   12.2659 O.2     1  UNL1       -0.2830
     41 H          58.5723   87.5541    6.6691 H       1  UNL1        0.2922
     42 H          61.3431   91.9611    9.9810 H       1  UNL1        0.2922
     43 C          62.9303   84.7855   12.5826 C.ar    1  UNL1        0.0379
     44 C          63.8148   83.8177   11.8537 C.ar    1  UNL1        0.0062
     45 C          64.2590   82.5535   12.5278 C.ar    1  UNL1        0.0367
     46 C          63.8187   82.2569   13.9307 C.ar    1  UNL1        0.1337
     47 O          64.2630   80.9926   14.6047 O.3     1  UNL1       -0.5055
     48 C          62.9343   83.2246   14.6596 C.ar    1  UNL1        0.0367
     49 C          62.4901   84.4889   13.9856 C.ar    1  UNL1        0.0062
     50 H          64.8155   80.3881   14.1494 H       1  UNL1        0.2922
@<TRIPOS>BOND
     1    15    16    2
     2    16    17    1
     3    17    18    2
     4    18    19    1
     5    19    20   ar
     6    20    21   ar
     7    21    22   ar
     8    22    23    1
     9    22    24   ar
    10    24    25   ar
    11    16    14    1
    12    14    13    1
    13     1    13    1
    14     1     2    1
    15     2     3    1
    16     3    27    1
    17    27    28    1
    18    28    29   ar
    19    29    43    1
    20    43    44   ar
    21    44    45   ar
    22    45    46   ar
    23    46    47    1
    24    46    48   ar
    25    48    49   ar
    26    29    30   ar
    27    30    31   ar
    28    31    32   ar
    29    32    33   ar
    30    33    34    1
    31    33    35   ar
    32    35    36   ar
    33    36    37    1
    34    36    38   ar
    35    38    39   ar
    36    39    40    2
    37     3     4    1
    38     4     5    1
    39     4     6    1
    40     6     7    1
    41     6     8    1
    42     8     9    1
    43    25    19   ar
    44     8     1    1
    45    39    28   ar
    46    49    43   ar
    47    38    31   ar
    48    23    26    1
    49    47    50    1
    50    34    41    1
    51    37    42    1
    52     5    10    1
    53     7    11    1
    54     9    12    1
@<TRIPOS>MOLECULE
*****
 50 54 0 0 0
SMALL
GASTEIGER

@<TRIPOS>ATOM
      1 C          61.9056   88.9490   10.2499 C.3     1  UNL1        0.1916
      2 O          62.7441   88.0784   11.1381 O.3     1  UNL1       -0.3147
      3 C          62.6603   86.5854   11.0203 C.3     1  UNL1        0.3183
      4 C          61.7381   85.9629   10.0143 C.3     1  UNL1        0.2105
      5 O          61.6543   84.4700    9.8965 O.3     1  UNL1       -0.3766
      6 C          60.8996   86.8336    9.1260 C.3     1  UNL1        0.1729
      7 O          59.9773   86.2112    8.1200 O.3     1  UNL1       -0.3793
      8 C          60.9834   88.3266    9.2438 C.3     1  UNL1        0.1707
      9 O          60.1449   89.1973    8.3556 O.3     1  UNL1       -0.3794
     10 H          62.2560   84.0608   10.5379 H       1  UNL1        0.2107
     11 H          59.5129   86.9091    7.6320 H       1  UNL1        0.2105
     12 H          59.6100   88.6403    7.7686 H       1  UNL1        0.2105
     13 C          61.9894   90.4420   10.3676 C.3     1  UNL1        0.2407
     14 O          62.5754   91.0654   11.5996 O.3     1  UNL1       -0.4427
     15 O          64.5578   92.1721   10.3365 O.2     1  UNL1       -0.2449
     16 C          63.9886   91.5684   11.5860 C.2     1  UNL1        0.3415
     17 C          64.8325   91.4675   12.8220 C.2     1  UNL1        0.0819
     18 C          66.1190   92.2329   12.9163 C.2     1  UNL1        0.0067
     19 C          66.5617   93.0991   11.7745 C.ar    1  UNL1        0.0004
     20 C          66.1823   94.5500   11.7428 C.ar    1  UNL1        0.0031
     21 C          66.6250   95.4162   10.6011 C.ar    1  UNL1        0.0366
     22 C          67.4471   94.8316    9.4910 C.ar    1  UNL1        0.1337
     23 O          67.8898   95.6979    8.3492 O.3     1  UNL1       -0.5055
     24 C          67.8266   93.3807    9.5227 C.ar    1  UNL1        0.0366
     25 C          67.3839   92.5144   10.6645 C.ar    1  UNL1        0.0031
     26 H          67.6528   96.6042    8.3294 H       1  UNL1        0.2922
     27 O          63.4988   85.7147   11.9085 O.3     1  UNL1       -0.4441
     28 C          63.3092   85.7574   13.3959 C.ar    1  UNL1        0.2144
     29 C          63.0315   84.4926   14.1531 C.ar    1  UNL1        0.1822
     30 O          62.8419   84.5352   15.6404 O.2     1  UNL1       -0.4500
     31 C          62.9299   85.8426   16.3706 C.ar    1  UNL1        0.1545
     32 C          62.7403   85.8852   17.8579 C.ar    1  UNL1        0.0744
     33 C          62.8284   87.1925   18.5880 C.ar    1  UNL1        0.1397
     34 O          62.6388   87.2352   20.0754 O.3     1  UNL1       -0.5053
     35 C          63.1061   88.4572   17.8308 C.ar    1  UNL1        0.0735
     36 C          63.2957   88.4146   16.3435 C.ar    1  UNL1        0.1428
     37 O          63.5735   89.6794   15.5863 O.3     1  UNL1       -0.5052
     38 C          63.2077   87.1073   15.6134 C.ar    1  UNL1        0.1104
     39 C          63.3973   87.0647   14.1260 C.ar    1  UNL1        0.2382
     40 O          63.6750   88.3294   13.3688 O.2     1  UNL1       -0.2830
     41 H          62.4653   86.4452   20.5485 H       1  UNL1        0.2922
     42 H          63.6285   90.4960   16.0424 H       1  UNL1        0.2922
     43 C          62.9434   83.1853   13.4230 C.ar    1  UNL1        0.0379
     44 C          63.6617   83.0048   12.1185 C.ar    1  UNL1        0.0062
     45 C          63.5737   81.6975   11.3884 C.ar    1  UNL1        0.0367
     46 C          62.7672   80.5706   11.9627 C.ar    1  UNL1        0.1337
     47 O          62.6792   79.2633   11.2325 O.3     1  UNL1       -0.5055
     48 C          62.0489   80.7510   13.2670 C.ar    1  UNL1        0.0367
     49 C          62.1370   82.0584   13.9972 C.ar    1  UNL1        0.0062
     50 H          63.1279   79.1506   10.4177 H       1  UNL1        0.2922
@<TRIPOS>BOND
     1    15    16    2
     2    16    17    1
     3    17    18    2
     4    18    19    1
     5    19    20   ar
     6    20    21   ar
     7    21    22   ar
     8    22    23    1
     9    22    24   ar
    10    24    25   ar
    11    16    14    1
    12    14    13    1
    13     1    13    1
    14     1     2    1
    15     2     3    1
    16     3    27    1
    17    27    28    1
    18    28    29   ar
    19    29    43    1
    20    43    44   ar
    21    44    45   ar
    22    45    46   ar
    23    46    47    1
    24    46    48   ar
    25    48    49   ar
    26    29    30   ar
    27    30    31   ar
    28    31    32   ar
    29    32    33   ar
    30    33    34    1
    31    33    35   ar
    32    35    36   ar
    33    36    37    1
    34    36    38   ar
    35    38    39   ar
    36    39    40    2
    37     3     4    1
    38     4     5    1
    39     4     6    1
    40     6     7    1
    41     6     8    1
    42     8     9    1
    43    25    19   ar
    44     8     1    1
    45    39    28   ar
    46    49    43   ar
    47    38    31   ar
    48    23    26    1
    49    47    50    1
    50    34    41    1
    51    37    42    1
    52     5    10    1
    53     7    11    1
    54     9    12    1
