@<TRIPOS>MOLECULE
*****
 28 30 0 0 0
SMALL
GASTEIGER

@<TRIPOS>ATOM
      1 C          65.8192   91.7534   13.8192 C.3     1  UNL1        0.0391
      2 C          65.3627   91.4209   15.2088 C.3     1  UNL1        0.0075
      3 C          64.1425   90.5732   15.4147 C.3     1  UNL1        0.0219
      4 C          63.3787   90.0580   14.2309 C.3     1  UNL1        0.0950
      5 N          63.8352   90.3906   12.8413 N.am    1  UNL1       -0.2636
      6 C          63.0714   89.8754   11.6575 C.2     1  UNL1        0.3077
      7 O          63.5279   90.2081   10.2679 O.2     1  UNL1       -0.2522
      8 N          61.8511   89.0277   11.8634 N.am    1  UNL1       -0.2681
      9 C          65.0554   91.2383   12.6354 C.3     1  UNL1        0.0989
     10 H          61.5515   88.8094   12.7754 H       1  UNL1        0.1564
     11 C          61.0875   88.5126   10.6796 C.ar    1  UNL1        0.0516
     12 C          60.9783   87.0354   10.4425 C.ar    1  UNL1        0.0156
     13 C          60.2147   86.5203    9.2587 C.ar    1  UNL1        0.0127
     14 C          59.5601   87.4823    8.3120 C.ar    1  UNL1        0.0578
     15 CL         58.7964   86.9671    7.1281 Cl      1  UNL1       -0.0822
     16 C          59.6692   88.9594    8.5490 C.ar    1  UNL1        0.0127
     17 C          60.4329   89.4745    9.7329 C.ar    1  UNL1        0.0156
     18 C          66.8680   92.4706   14.6166 C.ar    1  UNL1       -0.0020
     19 C          67.8481   91.6896   15.4408 C.ar    1  UNL1       -0.0011
     20 C          68.8969   92.4068   16.2381 C.ar    1  UNL1        0.0204
     21 C          68.9656   93.9049   16.2111 C.ar    1  UNL1        0.0989
     22 N          67.9855   94.6860   15.3869 N.ar    1  UNL1       -0.2426
     23 C          66.9367   93.9688   14.5896 C.ar    1  UNL1        0.0946
     24 C          66.6399   92.3351   12.7065 C.3     1  UNL1        0.0117
     25 C          65.9806   92.7433   11.4226 C.3     1  UNL1        0.0421
     26 O          65.5036   95.1388   10.5372 O.co2   1  UNL1       -0.5492
     27 C          66.4385   93.9777   10.7037 C.2     1  UNL1        0.0503
     28 O          67.8312   94.0508   10.1514 O.co2   1  UNL1       -0.5492
@<TRIPOS>UNITY_ATOM_ATTR
26 1
charge -1
@<TRIPOS>BOND
     1    26    27   ar
     2    27    28   ar
     3    27    25    1
     4    25    24    1
     5    24     1    1
     6     1    18    1
     7    18    19   ar
     8    19    20   ar
     9    20    21   ar
    10    21    22   ar
    11    22    23   ar
    12     1     2    1
    13     2     3    1
    14     3     4    1
    15     4     5    1
    16     5     6   am
    17     6     7    2
    18     6     8   am
    19     8    11    1
    20    11    12   ar
    21    12    13   ar
    22    13    14   ar
    23    14    15    1
    24    14    16   ar
    25    16    17   ar
    26     5     9    1
    27     9     1    1
    28    23    18   ar
    29    17    11   ar
    30     8    10    1
@<TRIPOS>MOLECULE
*****
 28 30 0 0 0
SMALL
GASTEIGER

@<TRIPOS>ATOM
      1 C          65.4996   91.4788   13.4840 C.3     1  UNL1        0.0391
      2 C          65.8956   92.6717   12.6654 C.3     1  UNL1        0.0075
      3 C          65.2765   92.8954   11.3176 C.3     1  UNL1        0.0219
      4 C          64.2612   91.9262   10.7884 C.3     1  UNL1        0.0950
      5 N          63.8652   90.7333   11.6070 N.am    1  UNL1       -0.2636
      6 C          62.8499   89.7641   11.0779 C.2     1  UNL1        0.3077
      7 O          62.4539   88.5713   11.8966 O.2     1  UNL1       -0.2522
      8 N          62.2308   89.9878    9.7301 N.am    1  UNL1       -0.2681
      9 C          64.4843   90.5096   12.9548 C.3     1  UNL1        0.0989
     10 H          62.4907   90.7707    9.1927 H       1  UNL1        0.1564
     11 C          61.2156   89.0186    9.2010 C.ar    1  UNL1        0.0516
     12 C          61.3122   87.5639    9.5542 C.ar    1  UNL1        0.0156
     13 C          60.2971   86.5947    9.0252 C.ar    1  UNL1        0.0127
     14 C          59.1852   87.0800    8.1430 C.ar    1  UNL1        0.0578
     15 CL         58.1700   86.1107    7.6139 Cl      1  UNL1       -0.0822
     16 C          59.0886   88.5346    7.7897 C.ar    1  UNL1        0.0127
     17 C          60.1038   89.5039    8.3188 C.ar    1  UNL1        0.0156
     18 C          66.4977   92.1098   14.4091 C.ar    1  UNL1       -0.0020
     19 C          67.9497   92.1453   14.0344 C.ar    1  UNL1       -0.0011
     20 C          68.9477   92.7763   14.9595 C.ar    1  UNL1        0.0204
     21 C          68.4937   93.3718   16.2592 C.ar    1  UNL1        0.0989
     22 N          67.0417   93.3363   16.6339 N.ar    1  UNL1       -0.2426
     23 C          66.0437   92.7053   15.7088 C.ar    1  UNL1        0.0946
     24 C          65.4502   90.5051   14.6239 C.3     1  UNL1        0.0117
     25 C          64.2666   89.5978   14.7845 C.3     1  UNL1        0.0421
     26 O          63.2730   90.9429   16.7728 O.co2   1  UNL1       -0.5492
     27 C          63.4506   89.6449   16.0423 C.2     1  UNL1        0.0503
     28 O          62.8123   88.3941   16.5694 O.co2   1  UNL1       -0.5492
@<TRIPOS>UNITY_ATOM_ATTR
26 1
charge -1
@<TRIPOS>BOND
     1    26    27   ar
     2    27    28   ar
     3    27    25    1
     4    25    24    1
     5    24     1    1
     6     1    18    1
     7    18    19   ar
     8    19    20   ar
     9    20    21   ar
    10    21    22   ar
    11    22    23   ar
    12     1     2    1
    13     2     3    1
    14     3     4    1
    15     4     5    1
    16     5     6   am
    17     6     7    2
    18     6     8   am
    19     8    11    1
    20    11    12   ar
    21    12    13   ar
    22    13    14   ar
    23    14    15    1
    24    14    16   ar
    25    16    17   ar
    26     5     9    1
    27     9     1    1
    28    23    18   ar
    29    17    11   ar
    30     8    10    1
@<TRIPOS>MOLECULE
*****
 28 30 0 0 0
SMALL
GASTEIGER

@<TRIPOS>ATOM
      1 C          63.8321   87.9181   14.3691 C.3     1  UNL1        0.0391
      2 C          63.4349   88.7881   13.2136 C.3     1  UNL1        0.0075
      3 C          62.9966   88.1649   11.9215 C.3     1  UNL1        0.0219
      4 C          62.9555   86.6716   11.7850 C.3     1  UNL1        0.0950
      5 N          63.3527   85.8017   12.9405 N.am    1  UNL1       -0.2636
      6 C          63.3116   84.3084   12.8040 C.2     1  UNL1        0.3077
      7 O          63.7088   83.4385   13.9596 O.2     1  UNL1       -0.2522
      8 N          62.8732   83.6852   11.5119 N.am    1  UNL1       -0.2681
      9 C          63.7910   86.4249   14.2326 C.3     1  UNL1        0.0989
     10 H          62.6125   84.2562   10.7535 H       1  UNL1        0.1564
     11 C          62.8321   82.1920   11.3755 C.ar    1  UNL1        0.0516
     12 C          62.4684   81.3408   12.5560 C.ar    1  UNL1        0.0156
     13 C          62.4273   79.8477   12.4196 C.ar    1  UNL1        0.0127
     14 C          62.7499   79.2056   11.1029 C.ar    1  UNL1        0.0578
     15 CL         62.7088   77.7123   10.9665 Cl      1  UNL1       -0.0822
     16 C          63.1136   80.0567    9.9225 C.ar    1  UNL1        0.0127
     17 C          63.1547   81.5500   10.0589 C.ar    1  UNL1        0.0156
     18 C          64.0358   89.2726   14.9807 C.ar    1  UNL1       -0.0020
     19 C          65.0711   90.2012   14.4189 C.ar    1  UNL1       -0.0011
     20 C          65.2747   91.5556   15.0306 C.ar    1  UNL1        0.0204
     21 C          64.4429   91.9814   16.2040 C.ar    1  UNL1        0.0989
     22 N          63.4076   91.0527   16.7658 N.ar    1  UNL1       -0.2426
     23 C          63.2040   89.6983   16.1542 C.ar    1  UNL1        0.0946
     24 C          64.3001   87.5185   15.7371 C.3     1  UNL1        0.0117
     25 C          63.7464   86.2862   16.3889 C.3     1  UNL1        0.0421
     26 O          62.8321   86.8483   18.7549 O.co2   1  UNL1       -0.5492
     27 C          62.5954   86.3959   17.3445 C.2     1  UNL1        0.0503
     28 O          61.2078   86.0530   16.8897 O.co2   1  UNL1       -0.5492
@<TRIPOS>UNITY_ATOM_ATTR
26 1
charge -1
@<TRIPOS>BOND
     1    26    27   ar
     2    27    28   ar
     3    27    25    1
     4    25    24    1
     5    24     1    1
     6     1    18    1
     7    18    19   ar
     8    19    20   ar
     9    20    21   ar
    10    21    22   ar
    11    22    23   ar
    12     1     2    1
    13     2     3    1
    14     3     4    1
    15     4     5    1
    16     5     6   am
    17     6     7    2
    18     6     8   am
    19     8    11    1
    20    11    12   ar
    21    12    13   ar
    22    13    14   ar
    23    14    15    1
    24    14    16   ar
    25    16    17   ar
    26     5     9    1
    27     9     1    1
    28    23    18   ar
    29    17    11   ar
    30     8    10    1
@<TRIPOS>MOLECULE
*****
 28 30 0 0 0
SMALL
GASTEIGER

@<TRIPOS>ATOM
      1 C          65.7566   93.2811   11.4050 C.3     1  UNL1        0.0391
      2 C          64.9257   92.9885   10.1910 C.3     1  UNL1        0.0075
      3 C          63.9610   91.8399   10.2014 C.3     1  UNL1        0.0219
      4 C          63.8273   90.9839   11.4259 C.3     1  UNL1        0.0950
      5 N          64.6582   91.2765   12.6399 N.am    1  UNL1       -0.2636
      6 C          64.5245   90.4205   13.8645 C.2     1  UNL1        0.3077
      7 O          65.3554   90.7132   15.0785 O.2     1  UNL1       -0.2522
      8 N          63.5598   89.2719   13.8749 N.am    1  UNL1       -0.2681
      9 C          65.6229   92.4251   12.6295 C.3     1  UNL1        0.0989
     10 H          63.0144   89.0799   13.0781 H       1  UNL1        0.1564
     11 C          63.4261   88.4160   15.0994 C.ar    1  UNL1        0.0516
     12 C          62.8926   89.0051   16.3716 C.ar    1  UNL1        0.0156
     13 C          62.7589   88.1493   17.5961 C.ar    1  UNL1        0.0127
     14 C          63.1587   86.7043   17.5486 C.ar    1  UNL1        0.0578
     15 CL         63.0250   85.8484   18.7732 Cl      1  UNL1       -0.0822
     16 C          63.6922   86.1152   16.2765 C.ar    1  UNL1        0.0127
     17 C          63.8259   86.9711   15.0519 C.ar    1  UNL1        0.0156
     18 C          66.2369   94.3702   10.4920 C.ar    1  UNL1       -0.0020
     19 C          67.2443   94.0634    9.4238 C.ar    1  UNL1       -0.0011
     20 C          67.7245   95.1524    8.5109 C.ar    1  UNL1        0.0204
     21 C          67.1973   96.5481    8.6662 C.ar    1  UNL1        0.0989
     22 N          66.1900   96.8548    9.7343 N.ar    1  UNL1       -0.2426
     23 C          65.7097   95.7659   10.6473 C.ar    1  UNL1        0.0946
     24 C          66.7544   93.9520   12.3020 C.3     1  UNL1        0.0117
     25 C          66.5582   93.9325   13.7889 C.3     1  UNL1        0.0421
     26 O          68.8110   92.6732   14.0875 O.co2   1  UNL1       -0.5492
     27 C          67.6381   93.3958   14.6810 C.2     1  UNL1        0.0503
     28 O          67.5451   93.5817   16.1665 O.co2   1  UNL1       -0.5492
@<TRIPOS>UNITY_ATOM_ATTR
26 1
charge -1
@<TRIPOS>BOND
     1    26    27   ar
     2    27    28   ar
     3    27    25    1
     4    25    24    1
     5    24     1    1
     6     1    18    1
     7    18    19   ar
     8    19    20   ar
     9    20    21   ar
    10    21    22   ar
    11    22    23   ar
    12     1     2    1
    13     2     3    1
    14     3     4    1
    15     4     5    1
    16     5     6   am
    17     6     7    2
    18     6     8   am
    19     8    11    1
    20    11    12   ar
    21    12    13   ar
    22    13    14   ar
    23    14    15    1
    24    14    16   ar
    25    16    17   ar
    26     5     9    1
    27     9     1    1
    28    23    18   ar
    29    17    11   ar
    30     8    10    1
@<TRIPOS>MOLECULE
*****
 28 30 0 0 0
SMALL
GASTEIGER

@<TRIPOS>ATOM
      1 C          64.1794   90.1587   13.8306 C.3     1  UNL1        0.0391
      2 C          64.4548   89.1606   14.9158 C.3     1  UNL1        0.0075
      3 C          64.2081   87.7011   14.6727 C.3     1  UNL1        0.0219
      4 C          63.6860   87.2398   13.3443 C.3     1  UNL1        0.0950
      5 N          63.4105   88.2380   12.2591 N.am    1  UNL1       -0.2636
      6 C          62.8884   87.7767   10.9306 C.2     1  UNL1        0.3077
      7 O          62.6130   88.7750    9.8454 O.2     1  UNL1       -0.2522
      8 N          62.6417   86.3173   10.6875 N.am    1  UNL1       -0.2681
      9 C          63.6572   89.6974   12.5022 C.3     1  UNL1        0.0989
     10 H          62.8225   85.6621   11.3998 H       1  UNL1        0.1564
     11 C          62.1196   85.8561    9.3591 C.ar    1  UNL1        0.0516
     12 C          60.7000   86.1451    8.9699 C.ar    1  UNL1        0.0156
     13 C          60.1778   85.6840    7.6416 C.ar    1  UNL1        0.0127
     14 C          61.0751   84.9338    6.7023 C.ar    1  UNL1        0.0578
     15 CL         60.5529   84.4726    5.3739 Cl      1  UNL1       -0.0822
     16 C          62.4946   84.6447    7.0915 C.ar    1  UNL1        0.0127
     17 C          63.0168   85.1059    8.4200 C.ar    1  UNL1        0.0156
     18 C          64.6643   91.0775   14.9126 C.ar    1  UNL1       -0.0020
     19 C          66.0584   91.6286   14.8596 C.ar    1  UNL1       -0.0011
     20 C          66.5433   92.5474   15.9415 C.ar    1  UNL1        0.0204
     21 C          65.6342   92.9150   17.0765 C.ar    1  UNL1        0.0989
     22 N          64.2401   92.3639   17.1296 N.ar    1  UNL1       -0.2426
     23 C          63.7552   91.4452   16.0476 C.ar    1  UNL1        0.0946
     24 C          64.0723   91.4760   13.1211 C.3     1  UNL1        0.0117
     25 C          64.5604   91.6092   11.7090 C.3     1  UNL1        0.0421
     26 O          65.7538   93.8782   12.1304 O.co2   1  UNL1       -0.5492
     27 C          65.6546   92.5818   11.3822 C.2     1  UNL1        0.0503
     28 O          66.6495   92.2580   10.3074 O.co2   1  UNL1       -0.5492
@<TRIPOS>UNITY_ATOM_ATTR
26 1
charge -1
@<TRIPOS>BOND
     1    26    27   ar
     2    27    28   ar
     3    27    25    1
     4    25    24    1
     5    24     1    1
     6     1    18    1
     7    18    19   ar
     8    19    20   ar
     9    20    21   ar
    10    21    22   ar
    11    22    23   ar
    12     1     2    1
    13     2     3    1
    14     3     4    1
    15     4     5    1
    16     5     6   am
    17     6     7    2
    18     6     8   am
    19     8    11    1
    20    11    12   ar
    21    12    13   ar
    22    13    14   ar
    23    14    15    1
    24    14    16   ar
    25    16    17   ar
    26     5     9    1
    27     9     1    1
    28    23    18   ar
    29    17    11   ar
    30     8    10    1
@<TRIPOS>MOLECULE
*****
 28 30 0 0 0
SMALL
GASTEIGER

@<TRIPOS>ATOM
      1 C          44.7948   76.7363   19.4617 C.3     1  UNL1        0.0391
      2 C          44.2547   76.1237   20.7198 C.3     1  UNL1        0.0075
      3 C          43.9775   74.6507   20.7777 C.3     1  UNL1        0.0219
      4 C          44.2403   73.7903   19.5774 C.3     1  UNL1        0.0950
      5 N          44.7803   74.4029   18.3192 N.am    1  UNL1       -0.2636
      6 C          45.0431   73.5426   17.1189 C.2     1  UNL1        0.3077
      7 O          45.5831   74.1553   15.8607 O.2     1  UNL1       -0.2522
      8 N          44.7658   72.0696   17.1768 N.am    1  UNL1       -0.2681
      9 C          45.0575   75.8760   18.2613 C.3     1  UNL1        0.0989
     10 H          44.4114   71.6674   18.0025 H       1  UNL1        0.1564
     11 C          45.0286   71.2093   15.9764 C.ar    1  UNL1        0.0516
     12 C          44.0913   71.2486   14.8059 C.ar    1  UNL1        0.0156
     13 C          44.3540   70.3884   13.6056 C.ar    1  UNL1        0.0127
     14 C          45.5540   69.4888   13.5756 C.ar    1  UNL1        0.0578
     15 CL         45.8168   68.6285   12.3752 Cl      1  UNL1       -0.0822
     16 C          46.4913   69.4495   14.7461 C.ar    1  UNL1        0.0127
     17 C          46.2286   70.3098   15.9465 C.ar    1  UNL1        0.0156
     18 C          44.7092   77.9567   20.3297 C.ar    1  UNL1       -0.0020
     19 C          45.5471   78.0551   21.5699 C.ar    1  UNL1       -0.0011
     20 C          45.4616   79.2755   22.4379 C.ar    1  UNL1        0.0204
     21 C          44.5381   80.3973   22.0657 C.ar    1  UNL1        0.0989
     22 N          43.7001   80.2989   20.8255 N.ar    1  UNL1       -0.2426
     23 C          43.7857   79.0786   19.9575 C.ar    1  UNL1        0.0946
     24 C          45.3051   77.7728   18.5049 C.3     1  UNL1        0.0117
     25 C          46.7653   78.1149   18.4785 C.3     1  UNL1        0.0421
     26 O          48.6619   79.8195   17.9814 O.co2   1  UNL1       -0.5492
     27 C          47.2029   79.5091   18.1399 C.2     1  UNL1        0.0503
     28 O          46.1816   80.5929   17.9598 O.co2   1  UNL1       -0.5492
@<TRIPOS>UNITY_ATOM_ATTR
26 1
charge -1
@<TRIPOS>BOND
     1    26    27   ar
     2    27    28   ar
     3    27    25    1
     4    25    24    1
     5    24     1    1
     6     1    18    1
     7    18    19   ar
     8    19    20   ar
     9    20    21   ar
    10    21    22   ar
    11    22    23   ar
    12     1     2    1
    13     2     3    1
    14     3     4    1
    15     4     5    1
    16     5     6   am
    17     6     7    2
    18     6     8   am
    19     8    11    1
    20    11    12   ar
    21    12    13   ar
    22    13    14   ar
    23    14    15    1
    24    14    16   ar
    25    16    17   ar
    26     5     9    1
    27     9     1    1
    28    23    18   ar
    29    17    11   ar
    30     8    10    1
@<TRIPOS>MOLECULE
*****
 28 30 0 0 0
SMALL
GASTEIGER

@<TRIPOS>ATOM
      1 C          56.1928   94.8880   -3.0454 C.3     1  UNL1        0.0391
      2 C          55.9615   96.3002   -2.5957 C.3     1  UNL1        0.0075
      3 C          56.7388   96.8559   -1.4395 C.3     1  UNL1        0.0219
      4 C          57.7473   95.9994   -0.7328 C.3     1  UNL1        0.0950
      5 N          57.9786   94.5873   -1.1825 N.am    1  UNL1       -0.2636
      6 C          58.9871   93.7307   -0.4759 C.2     1  UNL1        0.3077
      7 O          59.2183   92.3186   -0.9256 O.2     1  UNL1       -0.2522
      8 N          59.7644   94.2865    0.6804 N.am    1  UNL1       -0.2681
      9 C          57.2013   94.0315   -2.3388 C.3     1  UNL1        0.0989
     10 H          59.6126   95.2134    0.9756 H       1  UNL1        0.1564
     11 C          60.7729   93.4299    1.3870 C.ar    1  UNL1        0.0516
     12 C          60.4206   92.7776    2.6910 C.ar    1  UNL1        0.0156
     13 C          61.4290   91.9210    3.3976 C.ar    1  UNL1        0.0127
     14 C          62.7898   91.7168    2.8003 C.ar    1  UNL1        0.0578
     15 CL         63.7982   90.8602    3.5069 Cl      1  UNL1       -0.0822
     16 C          63.1420   92.3692    1.4963 C.ar    1  UNL1        0.0127
     17 C          62.1335   93.2257    0.7897 C.ar    1  UNL1        0.0156
     18 C          55.1372   95.3043   -4.0266 C.ar    1  UNL1       -0.0020
     19 C          53.8445   95.8856   -3.5358 C.ar    1  UNL1       -0.0011
     20 C          52.7890   96.3018   -4.5170 C.ar    1  UNL1        0.0204
     21 C          53.0263   96.1366   -5.9889 C.ar    1  UNL1        0.0989
     22 N          54.3190   95.5553   -6.4796 N.ar    1  UNL1       -0.2426
     23 C          55.3744   95.1391   -5.4985 C.ar    1  UNL1        0.0946
     24 C          56.0574   93.6204   -3.8358 C.3     1  UNL1        0.0117
     25 C          55.9722   92.3007   -3.1280 C.3     1  UNL1        0.0421
     26 O          55.3011   89.8501   -3.6708 O.co2   1  UNL1       -0.5492
     27 C          56.2061   91.0270   -3.8851 C.2     1  UNL1        0.0503
     28 O          57.3450   90.9303   -4.8565 O.co2   1  UNL1       -0.5492
@<TRIPOS>UNITY_ATOM_ATTR
26 1
charge -1
@<TRIPOS>BOND
     1    26    27   ar
     2    27    28   ar
     3    27    25    1
     4    25    24    1
     5    24     1    1
     6     1    18    1
     7    18    19   ar
     8    19    20   ar
     9    20    21   ar
    10    21    22   ar
    11    22    23   ar
    12     1     2    1
    13     2     3    1
    14     3     4    1
    15     4     5    1
    16     5     6   am
    17     6     7    2
    18     6     8   am
    19     8    11    1
    20    11    12   ar
    21    12    13   ar
    22    13    14   ar
    23    14    15    1
    24    14    16   ar
    25    16    17   ar
    26     5     9    1
    27     9     1    1
    28    23    18   ar
    29    17    11   ar
    30     8    10    1
@<TRIPOS>MOLECULE
*****
 28 30 0 0 0
SMALL
GASTEIGER

@<TRIPOS>ATOM
      1 C          61.7809   88.6025   10.2707 C.3     1  UNL1        0.0391
      2 C          61.5314   89.6592    9.2357 C.3     1  UNL1        0.0075
      3 C          62.2453   90.9757    9.3207 C.3     1  UNL1        0.0219
      4 C          63.2086   91.2355   10.4408 C.3     1  UNL1        0.0950
      5 N          63.4580   90.1789   11.4758 N.am    1  UNL1       -0.2636
      6 C          64.4213   90.4387   12.5959 C.2     1  UNL1        0.3077
      7 O          64.6707   89.3820   13.6309 O.2     1  UNL1       -0.2522
      8 N          65.1352   91.7552   12.6810 N.am    1  UNL1       -0.2681
      9 C          62.7442   88.8624   11.3908 C.3     1  UNL1        0.0989
     10 H          64.9715   92.4488   12.0017 H       1  UNL1        0.1564
     11 C          66.0984   92.0150   13.8010 C.ar    1  UNL1        0.0516
     12 C          67.5759   91.9487   13.5501 C.ar    1  UNL1        0.0156
     13 C          68.5392   92.2084   14.6701 C.ar    1  UNL1        0.0127
     14 C          68.0251   92.5345   16.0411 C.ar    1  UNL1        0.0578
     15 CL         68.9885   92.7942   17.1612 Cl      1  UNL1       -0.0822
     16 C          66.5478   92.6008   16.2920 C.ar    1  UNL1        0.0127
     17 C          65.5844   92.3410   15.1719 C.ar    1  UNL1        0.0156
     18 C          60.7840   87.8897    9.4057 C.ar    1  UNL1       -0.0020
     19 C          61.1424   86.5777    8.7732 C.ar    1  UNL1       -0.0011
     20 C          60.1454   85.8649    7.9083 C.ar    1  UNL1        0.0204
     21 C          58.7901   86.4642    7.6759 C.ar    1  UNL1        0.0989
     22 N          58.4318   87.7762    8.3084 N.ar    1  UNL1       -0.2426
     23 C          59.4287   88.4890    9.1733 C.ar    1  UNL1        0.0946
     24 C          61.6841   87.2983   11.0053 C.3     1  UNL1        0.0117
     25 C          62.8451   86.8076   11.8185 C.3     1  UNL1        0.0421
     26 O          62.6619   85.0834   13.7533 O.co2   1  UNL1       -0.5492
     27 C          62.8764   85.3874   12.3002 C.2     1  UNL1        0.0503
     28 O          63.1223   84.2713   11.3287 O.co2   1  UNL1       -0.5492
@<TRIPOS>UNITY_ATOM_ATTR
26 1
charge -1
@<TRIPOS>BOND
     1    26    27   ar
     2    27    28   ar
     3    27    25    1
     4    25    24    1
     5    24     1    1
     6     1    18    1
     7    18    19   ar
     8    19    20   ar
     9    20    21   ar
    10    21    22   ar
    11    22    23   ar
    12     1     2    1
    13     2     3    1
    14     3     4    1
    15     4     5    1
    16     5     6   am
    17     6     7    2
    18     6     8   am
    19     8    11    1
    20    11    12   ar
    21    12    13   ar
    22    13    14   ar
    23    14    15    1
    24    14    16   ar
    25    16    17   ar
    26     5     9    1
    27     9     1    1
    28    23    18   ar
    29    17    11   ar
    30     8    10    1
@<TRIPOS>MOLECULE
*****
 28 30 0 0 0
SMALL
GASTEIGER

@<TRIPOS>ATOM
      1 C          61.1330   94.6260   -0.3020 C.3     1  UNL1        0.0391
      2 C          61.3383   95.6744    0.7509 C.3     1  UNL1        0.0075
      3 C          60.2440   96.6531    1.0583 C.3     1  UNL1        0.0219
      4 C          58.9442   96.5833    0.3127 C.3     1  UNL1        0.0950
      5 N          58.7388   95.5349   -0.7402 N.am    1  UNL1       -0.2636
      6 C          57.4390   95.4651   -1.4857 C.2     1  UNL1        0.3077
      7 O          57.2338   94.4167   -2.5386 O.2     1  UNL1       -0.2522
      8 N          56.3447   96.4438   -1.1783 N.am    1  UNL1       -0.2681
      9 C          59.8332   94.5562   -1.0476 C.3     1  UNL1        0.0989
     10 H          56.4795   97.1320   -0.4872 H       1  UNL1        0.1564
     11 C          55.0450   96.3740   -1.9238 C.ar    1  UNL1        0.0516
     12 C          54.9686   96.8507   -3.3441 C.ar    1  UNL1        0.0156
     13 C          53.6690   96.7809   -4.0897 C.ar    1  UNL1        0.0127
     14 C          52.4457   96.2345   -3.4151 C.ar    1  UNL1        0.0578
     15 CL         51.1459   96.1647   -4.1608 Cl      1  UNL1       -0.0822
     16 C          52.5220   95.7579   -1.9949 C.ar    1  UNL1        0.0127
     17 C          53.8218   95.8276   -1.2493 C.ar    1  UNL1        0.0156
     18 C          62.5299   94.2912    0.1299 C.ar    1  UNL1       -0.0020
     19 C          62.7668   93.1748    1.1033 C.ar    1  UNL1       -0.0011
     20 C          64.1637   92.8400    1.5352 C.ar    1  UNL1        0.0204
     21 C          65.3237   93.6217    0.9937 C.ar    1  UNL1        0.0989
     22 N          65.0869   94.7381    0.0203 N.ar    1  UNL1       -0.2426
     23 C          63.6900   95.0729   -0.4115 C.ar    1  UNL1        0.0946
     24 C          61.4127   93.4612   -1.2049 C.3     1  UNL1        0.0117
     25 C          61.2064   93.5929   -2.6848 C.3     1  UNL1        0.0421
     26 O          62.6708   95.2239   -4.0795 O.co2   1  UNL1       -0.5492
     27 C          62.3796   93.8374   -3.5869 C.2     1  UNL1        0.0503
     28 O          63.2616   92.6952   -3.9963 O.co2   1  UNL1       -0.5492
@<TRIPOS>UNITY_ATOM_ATTR
26 1
charge -1
@<TRIPOS>BOND
     1    26    27   ar
     2    27    28   ar
     3    27    25    1
     4    25    24    1
     5    24     1    1
     6     1    18    1
     7    18    19   ar
     8    19    20   ar
     9    20    21   ar
    10    21    22   ar
    11    22    23   ar
    12     1     2    1
    13     2     3    1
    14     3     4    1
    15     4     5    1
    16     5     6   am
    17     6     7    2
    18     6     8   am
    19     8    11    1
    20    11    12   ar
    21    12    13   ar
    22    13    14   ar
    23    14    15    1
    24    14    16   ar
    25    16    17   ar
    26     5     9    1
    27     9     1    1
    28    23    18   ar
    29    17    11   ar
    30     8    10    1
