@<TRIPOS>MOLECULE
*****
 32 36 0 0 0
SMALL
GASTEIGER

@<TRIPOS>ATOM
      1 O          63.4426   87.4006   12.9833 O.2     1  UNL1       -0.2699
      2 C          62.7628   86.6513   11.8759 C.2     1  UNL1        0.2506
      3 N          61.6995   87.3227   11.0583 N.am    1  UNL1       -0.2723
      4 C          61.0197   86.5733    9.9509 C.3     1  UNL1        0.1257
      5 C          59.9563   87.2449    9.1333 C.3     1  UNL1        0.1637
      6 O          59.5728   88.6657    9.4232 O.3     1  UNL1       -0.3502
      7 C          60.2526   89.4151   10.5306 C.3     1  UNL1        0.1622
      8 C          61.3159   88.7436   11.3481 C.3     1  UNL1        0.1096
      9 C          63.1464   85.2303   11.5860 C.ar    1  UNL1        0.0729
     10 C          63.2894   84.7667   10.1667 C.ar    1  UNL1        0.0061
     11 C          63.6730   83.3459    9.8768 C.ar    1  UNL1        0.0002
     12 C          63.9136   82.3887   11.0063 C.ar    1  UNL1        0.0016
     13 C          63.7706   82.8523   12.4257 C.ar    1  UNL1        0.0211
     14 C          63.3870   84.2731   12.7155 C.ar    1  UNL1        0.1072
     15 N          63.2440   84.7368   14.1349 N.ar    1  UNL1       -0.1477
     16 N          61.9950   84.6693   14.9629 N.ar    1  UNL1       -0.1447
     17 C          62.3039   85.2401   16.3152 C.ar    1  UNL1        0.1446
     18 C          63.7438   85.6603   16.3230 C.ar    1  UNL1        0.1446
     19 N          64.3248   85.3493   14.9755 N.ar    1  UNL1       -0.1447
     20 C          61.9957   89.4930   12.4555 C.3     1  UNL1        0.0496
     21 C          63.1106   90.4462   12.1420 C.ar    1  UNL1       -0.0083
     22 C          64.0749   90.8520   13.2169 C.ar    1  UNL1        0.0175
     23 C          65.1899   91.8053   12.9034 C.ar    1  UNL1        0.1026
     24 C          65.3405   92.3527   11.5150 C.ar    1  UNL1        0.0218
     25 C          64.3761   91.9468   10.4401 C.ar    1  UNL1        0.0127
     26 C          63.2612   90.9936   10.7536 C.ar    1  UNL1        0.0538
     27 CL         62.2969   90.5879    9.6787 Cl      1  UNL1       -0.0826
     28 N          66.1542   92.2110   13.9783 N.ar    1  UNL1       -0.1478
     29 N          67.6392   92.3533   13.8226 N.ar    1  UNL1       -0.1447
     30 C          68.2056   92.7760   15.1457 C.ar    1  UNL1        0.1446
     31 C          67.0706   92.8950   16.1191 C.ar    1  UNL1        0.1446
     32 N          65.8027   92.5458   15.3976 N.ar    1  UNL1       -0.1447
@<TRIPOS>BOND
     1     1     2    2
     2     2     9    1
     3     9    10   ar
     4    10    11   ar
     5    11    12   ar
     6    12    13   ar
     7    13    14   ar
     8    14    15    1
     9    15    16   ar
    10    16    17   ar
    11    17    18   ar
    12    18    19   ar
    13     2     3   am
    14     3     4    1
    15     4     5    1
    16     5     6    1
    17     6     7    1
    18     7     8    1
    19     8    20    1
    20    20    21    1
    21    21    22   ar
    22    22    23   ar
    23    23    28    1
    24    28    29   ar
    25    29    30   ar
    26    30    31   ar
    27    31    32   ar
    28    23    24   ar
    29    24    25   ar
    30    25    26   ar
    31    26    27    1
    32    14     9   ar
    33    19    15   ar
    34     8     3    1
    35    26    21   ar
    36    32    28   ar
@<TRIPOS>MOLECULE
*****
 32 36 0 0 0
SMALL
GASTEIGER

@<TRIPOS>ATOM
      1 O          63.2984   87.4564   13.2154 O.2     1  UNL1       -0.2699
      2 C          62.7466   87.1937   11.8455 C.2     1  UNL1        0.2506
      3 N          61.9615   88.2571   11.1365 N.am    1  UNL1       -0.2723
      4 C          61.4097   87.9943    9.7667 C.3     1  UNL1        0.1257
      5 C          60.6245   89.0578    9.0577 C.3     1  UNL1        0.1637
      6 O          60.3911   90.3839    9.7186 O.3     1  UNL1       -0.3502
      7 C          60.9429   90.6467   11.0885 C.3     1  UNL1        0.1622
      8 C          61.7280   89.5833   11.7975 C.3     1  UNL1        0.1096
      9 C          62.9801   85.8674   11.1846 C.ar    1  UNL1        0.0729
     10 C          62.9602   85.7612    9.6885 C.ar    1  UNL1        0.0061
     11 C          63.1936   84.4351    9.0275 C.ar    1  UNL1        0.0002
     12 C          63.4469   83.2152    9.8627 C.ar    1  UNL1        0.0016
     13 C          63.4668   83.3214   11.3588 C.ar    1  UNL1        0.0211
     14 C          63.2334   84.6475   12.0197 C.ar    1  UNL1        0.1072
     15 N          63.2533   84.7537   13.5159 N.ar    1  UNL1       -0.1477
     16 N          62.0698   84.6081   14.4259 N.ar    1  UNL1       -0.1447
     17 C          62.5452   84.7885   15.8371 C.ar    1  UNL1        0.1446
     18 C          64.0225   85.0457   15.7992 C.ar    1  UNL1        0.1446
     19 N          64.4601   85.0242   14.3646 N.ar    1  UNL1       -0.1447
     20 C          62.2798   89.8460   13.1673 C.3     1  UNL1        0.0496
     21 C          63.5874   90.5638   13.3242 C.ar    1  UNL1       -0.0083
     22 C          64.1528   91.3512   12.1795 C.ar    1  UNL1        0.0175
     23 C          65.4605   92.0691   12.3363 C.ar    1  UNL1        0.1026
     24 C          66.2029   91.9996   13.6379 C.ar    1  UNL1        0.0218
     25 C          65.6375   91.2121   14.7826 C.ar    1  UNL1        0.0127
     26 C          64.3298   90.4943   14.6258 C.ar    1  UNL1        0.0538
     27 CL         63.7645   89.7069   15.7705 Cl      1  UNL1       -0.0826
     28 N          66.0258   92.8565   11.1916 N.ar    1  UNL1       -0.1478
     29 N          65.5518   94.2019   10.7277 N.ar    1  UNL1       -0.1447
     30 C          66.3974   94.6136    9.5592 C.ar    1  UNL1        0.1446
     31 C          67.3942   93.5228    9.3010 C.ar    1  UNL1        0.1446
     32 N          67.1645   92.4368   10.3099 N.ar    1  UNL1       -0.1447
@<TRIPOS>BOND
     1     1     2    2
     2     2     9    1
     3     9    10   ar
     4    10    11   ar
     5    11    12   ar
     6    12    13   ar
     7    13    14   ar
     8    14    15    1
     9    15    16   ar
    10    16    17   ar
    11    17    18   ar
    12    18    19   ar
    13     2     3   am
    14     3     4    1
    15     4     5    1
    16     5     6    1
    17     6     7    1
    18     7     8    1
    19     8    20    1
    20    20    21    1
    21    21    22   ar
    22    22    23   ar
    23    23    28    1
    24    28    29   ar
    25    29    30   ar
    26    30    31   ar
    27    31    32   ar
    28    23    24   ar
    29    24    25   ar
    30    25    26   ar
    31    26    27    1
    32    14     9   ar
    33    19    15   ar
    34     8     3    1
    35    26    21   ar
    36    32    28   ar
@<TRIPOS>MOLECULE
*****
 32 36 0 0 0
SMALL
GASTEIGER

@<TRIPOS>ATOM
      1 O          65.7970   90.8982   13.9258 O.2     1  UNL1       -0.2699
      2 C          65.0291   91.3505   12.7192 C.2     1  UNL1        0.2506
      3 N          63.9023   90.5136   12.1902 N.am    1  UNL1       -0.2723
      4 C          63.1345   90.9660   10.9836 C.3     1  UNL1        0.1257
      5 C          62.0076   90.1290   10.4546 C.3     1  UNL1        0.1637
      6 O          61.6486   88.8399   11.1322 O.3     1  UNL1       -0.3502
      7 C          62.4164   88.3876   12.3388 C.3     1  UNL1        0.1622
      8 C          63.5433   89.2244   12.8678 C.3     1  UNL1        0.1096
      9 C          65.3882   92.6397   12.0416 C.ar    1  UNL1        0.0729
     10 C          64.8228   92.9591   10.6894 C.ar    1  UNL1        0.0061
     11 C          65.1818   94.2483   10.0119 C.ar    1  UNL1        0.0002
     12 C          66.1062   95.2180   10.6864 C.ar    1  UNL1        0.0016
     13 C          66.6716   94.8986   12.0386 C.ar    1  UNL1        0.0211
     14 C          66.3126   93.6095   12.7162 C.ar    1  UNL1        0.1072
     15 N          66.8779   93.2900   14.0683 N.ar    1  UNL1       -0.1477
     16 N          66.1152   93.2661   15.3597 N.ar    1  UNL1       -0.1447
     17 C          67.0711   92.8998   16.4560 C.ar    1  UNL1        0.1446
     18 C          68.4247   92.6973   15.8422 C.ar    1  UNL1        0.1446
     19 N          68.3053   92.9385   14.3666 N.ar    1  UNL1       -0.1447
     20 C          64.3111   88.7721   14.0744 C.3     1  UNL1        0.0496
     21 C          63.9152   87.5128   14.7866 C.ar    1  UNL1       -0.0083
     22 C          64.0504   86.1873   14.0976 C.ar    1  UNL1        0.0175
     23 C          63.6545   84.9279   14.8098 C.ar    1  UNL1        0.1026
     24 C          63.1234   84.9941   16.2111 C.ar    1  UNL1        0.0218
     25 C          62.9882   86.3196   16.9001 C.ar    1  UNL1        0.0127
     26 C          63.3841   87.5789   16.1879 C.ar    1  UNL1        0.0538
     27 CL         63.2490   88.9044   16.8769 Cl      1  UNL1       -0.0826
     28 N          63.7896   83.6024   14.1208 N.ar    1  UNL1       -0.1478
     29 N          64.3223   83.3786   12.7366 N.ar    1  UNL1       -0.1447
     30 C          64.2778   81.9059   12.4552 C.ar    1  UNL1        0.1446
     31 C          63.7176   81.2195   13.6657 C.ar    1  UNL1        0.1446
     32 N          63.4159   82.2680   14.6950 N.ar    1  UNL1       -0.1447
@<TRIPOS>BOND
     1     1     2    2
     2     2     9    1
     3     9    10   ar
     4    10    11   ar
     5    11    12   ar
     6    12    13   ar
     7    13    14   ar
     8    14    15    1
     9    15    16   ar
    10    16    17   ar
    11    17    18   ar
    12    18    19   ar
    13     2     3   am
    14     3     4    1
    15     4     5    1
    16     5     6    1
    17     6     7    1
    18     7     8    1
    19     8    20    1
    20    20    21    1
    21    21    22   ar
    22    22    23   ar
    23    23    28    1
    24    28    29   ar
    25    29    30   ar
    26    30    31   ar
    27    31    32   ar
    28    23    24   ar
    29    24    25   ar
    30    25    26   ar
    31    26    27    1
    32    14     9   ar
    33    19    15   ar
    34     8     3    1
    35    26    21   ar
    36    32    28   ar
@<TRIPOS>MOLECULE
*****
 32 36 0 0 0
SMALL
GASTEIGER

@<TRIPOS>ATOM
      1 O          61.6651   85.4471   13.0278 O.2     1  UNL1       -0.2699
      2 C          62.3338   84.4280   12.1536 C.2     1  UNL1        0.2506
      3 N          62.6283   84.7487   10.7182 N.am    1  UNL1       -0.2723
      4 C          63.2969   83.7296    9.8439 C.3     1  UNL1        0.1257
      5 C          63.5914   84.0503    8.4084 C.3     1  UNL1        0.1637
      6 O          63.2172   85.3901    7.8473 O.3     1  UNL1       -0.3502
      7 C          62.5485   86.4092    8.7216 C.3     1  UNL1        0.1622
      8 C          62.2541   86.0885   10.1569 C.3     1  UNL1        0.1096
      9 C          62.7080   83.0882   12.7148 C.ar    1  UNL1        0.0729
     10 C          62.4283   81.8413   11.9292 C.ar    1  UNL1        0.0061
     11 C          62.8025   80.5016   12.4903 C.ar    1  UNL1        0.0002
     12 C          63.4563   80.4086   13.8371 C.ar    1  UNL1        0.0016
     13 C          63.7360   81.6555   14.6227 C.ar    1  UNL1        0.0211
     14 C          63.3618   82.9952   14.0615 C.ar    1  UNL1        0.1072
     15 N          63.6415   84.2421   14.8472 N.ar    1  UNL1       -0.1477
     16 N          64.7426   85.2248   14.5790 N.ar    1  UNL1       -0.1447
     17 C          64.6508   86.3152   15.6050 C.ar    1  UNL1        0.1446
     18 C          63.4930   86.0064   16.5072 C.ar    1  UNL1        0.1446
     19 N          62.8692   84.7251   16.0389 N.ar    1  UNL1       -0.1447
     20 C          61.5854   87.1076   11.0312 C.3     1  UNL1        0.0496
     21 C          62.0329   88.5388   10.9920 C.ar    1  UNL1       -0.0083
     22 C          63.0182   89.0444   12.0036 C.ar    1  UNL1        0.0175
     23 C          63.4657   90.4756   11.9645 C.ar    1  UNL1        0.1026
     24 C          62.9279   91.4011   10.9137 C.ar    1  UNL1        0.0218
     25 C          61.9425   90.8954    9.9020 C.ar    1  UNL1        0.0127
     26 C          61.4950   89.4642    9.9412 C.ar    1  UNL1        0.0538
     27 CL         60.5097   88.9586    8.9296 Cl      1  UNL1       -0.0826
     28 N          64.4511   90.9812   12.9761 N.ar    1  UNL1       -0.1478
     29 N          65.1046   92.3313   12.9719 N.ar    1  UNL1       -0.1447
     30 C          66.0134   92.4101   14.1627 C.ar    1  UNL1        0.1446
     31 C          65.9214   91.1086   14.9029 C.ar    1  UNL1        0.1446
     32 N          64.9558   90.2256   14.1695 N.ar    1  UNL1       -0.1447
@<TRIPOS>BOND
     1     1     2    2
     2     2     9    1
     3     9    10   ar
     4    10    11   ar
     5    11    12   ar
     6    12    13   ar
     7    13    14   ar
     8    14    15    1
     9    15    16   ar
    10    16    17   ar
    11    17    18   ar
    12    18    19   ar
    13     2     3   am
    14     3     4    1
    15     4     5    1
    16     5     6    1
    17     6     7    1
    18     7     8    1
    19     8    20    1
    20    20    21    1
    21    21    22   ar
    22    22    23   ar
    23    23    28    1
    24    28    29   ar
    25    29    30   ar
    26    30    31   ar
    27    31    32   ar
    28    23    24   ar
    29    24    25   ar
    30    25    26   ar
    31    26    27    1
    32    14     9   ar
    33    19    15   ar
    34     8     3    1
    35    26    21   ar
    36    32    28   ar
@<TRIPOS>MOLECULE
*****
 32 36 0 0 0
SMALL
GASTEIGER

@<TRIPOS>ATOM
      1 O          63.5004   88.2066   11.9156 O.2     1  UNL1       -0.2699
      2 C          63.5107   87.5536   13.2660 C.2     1  UNL1        0.2506
      3 N          63.3891   88.3906   14.5048 N.am    1  UNL1       -0.2723
      4 C          63.3994   87.7376   15.8551 C.3     1  UNL1        0.1257
      5 C          63.2779   88.5746   17.0940 C.3     1  UNL1        0.1637
      6 O          63.1460   90.0646   16.9824 O.3     1  UNL1       -0.3502
      7 C          63.1357   90.7176   15.6320 C.3     1  UNL1        0.1622
      8 C          63.2573   89.8807   14.3932 C.3     1  UNL1        0.1096
      9 C          63.6426   86.0635   13.3775 C.ar    1  UNL1        0.0729
     10 C          64.4353   85.4627   14.5003 C.ar    1  UNL1        0.0061
     11 C          64.5672   83.9727   14.6118 C.ar    1  UNL1        0.0002
     12 C          63.9064   83.0836   13.6006 C.ar    1  UNL1        0.0016
     13 C          63.1136   83.6844   12.4779 C.ar    1  UNL1        0.0211
     14 C          62.9817   85.1743   12.3663 C.ar    1  UNL1        0.1072
     15 N          62.1890   85.7751   11.2435 N.ar    1  UNL1       -0.1477
     16 N          62.4950   85.6466    9.7807 N.ar    1  UNL1       -0.1447
     17 C          61.4462   86.4020    9.0196 C.ar    1  UNL1        0.1446
     18 C          60.4919   86.9974   10.0120 C.ar    1  UNL1        0.1446
     19 N          60.9510   86.6100   11.3864 N.ar    1  UNL1       -0.1447
     20 C          63.2470   90.5337   13.0429 C.3     1  UNL1        0.0496
     21 C          64.4005   91.3923   12.6162 C.ar    1  UNL1       -0.0083
     22 C          65.4744   91.7489   13.6008 C.ar    1  UNL1        0.0175
     23 C          66.6280   92.6076   13.1741 C.ar    1  UNL1        0.1026
     24 C          66.7075   93.1097   11.7629 C.ar    1  UNL1        0.0218
     25 C          65.6335   92.7531   10.7783 C.ar    1  UNL1        0.0127
     26 C          64.4800   91.8944   11.2050 C.ar    1  UNL1        0.0538
     27 CL         63.4060   91.5379   10.2204 Cl      1  UNL1       -0.0826
     28 N          67.7019   92.9642   14.1587 N.ar    1  UNL1       -0.1478
     29 N          67.5530   93.8909   15.3288 N.ar    1  UNL1       -0.1447
     30 C          68.8724   93.9561   16.0393 C.ar    1  UNL1        0.1446
     31 C          69.8369   93.0698   15.3083 C.ar    1  UNL1        0.1446
     32 N          69.1135   92.4568   14.1461 N.ar    1  UNL1       -0.1447
@<TRIPOS>BOND
     1     1     2    2
     2     2     9    1
     3     9    10   ar
     4    10    11   ar
     5    11    12   ar
     6    12    13   ar
     7    13    14   ar
     8    14    15    1
     9    15    16   ar
    10    16    17   ar
    11    17    18   ar
    12    18    19   ar
    13     2     3   am
    14     3     4    1
    15     4     5    1
    16     5     6    1
    17     6     7    1
    18     7     8    1
    19     8    20    1
    20    20    21    1
    21    21    22   ar
    22    22    23   ar
    23    23    28    1
    24    28    29   ar
    25    29    30   ar
    26    30    31   ar
    27    31    32   ar
    28    23    24   ar
    29    24    25   ar
    30    25    26   ar
    31    26    27    1
    32    14     9   ar
    33    19    15   ar
    34     8     3    1
    35    26    21   ar
    36    32    28   ar
@<TRIPOS>MOLECULE
*****
 32 36 0 0 0
SMALL
GASTEIGER

@<TRIPOS>ATOM
      1 O          62.4673   90.2426   11.5874 O.2     1  UNL1       -0.2699
      2 C          62.6213   88.7510   11.6246 C.2     1  UNL1        0.2506
      3 N          63.3321   88.0988   12.7732 N.am    1  UNL1       -0.2723
      4 C          63.4861   86.6072   12.8105 C.3     1  UNL1        0.1257
      5 C          64.1970   85.9551   13.9592 C.3     1  UNL1        0.1637
      6 O          64.7539   86.7946   15.0705 O.3     1  UNL1       -0.3502
      7 C          64.5999   88.2862   15.0333 C.3     1  UNL1        0.1622
      8 C          63.8890   88.9383   13.8847 C.3     1  UNL1        0.1096
      9 C          62.0644   87.9115   10.5132 C.ar    1  UNL1        0.0729
     10 C          62.9604   86.9726    9.7612 C.ar    1  UNL1        0.0061
     11 C          62.4036   86.1331    8.6498 C.ar    1  UNL1        0.0002
     12 C          60.9507   86.2326    8.2904 C.ar    1  UNL1        0.0016
     13 C          60.0547   87.1715    9.0424 C.ar    1  UNL1        0.0211
     14 C          60.6115   88.0110   10.1538 C.ar    1  UNL1        0.1072
     15 N          59.7154   88.9499   10.9058 N.ar    1  UNL1       -0.1477
     16 N          59.4837   90.3962   10.5825 N.ar    1  UNL1       -0.1447
     17 C          58.5188   90.9476   11.5900 C.ar    1  UNL1        0.1446
     18 C          58.1543   89.8421   12.5360 C.ar    1  UNL1        0.1446
     19 N          58.8938   88.6075   12.1131 N.ar    1  UNL1       -0.1447
     20 C          63.7350   90.4299   13.8474 C.3     1  UNL1        0.0496
     21 C          64.9501   91.3089   13.8187 C.ar    1  UNL1       -0.0083
     22 C          65.6227   91.6163   12.5138 C.ar    1  UNL1        0.0175
     23 C          66.8379   92.4953   12.4850 C.ar    1  UNL1        0.1026
     24 C          67.3804   93.0668   13.7614 C.ar    1  UNL1        0.0218
     25 C          66.7078   92.7594   15.0664 C.ar    1  UNL1        0.0127
     26 C          65.4926   91.8804   15.0951 C.ar    1  UNL1        0.0538
     27 CL         64.8200   91.5730   16.4001 Cl      1  UNL1       -0.0826
     28 N          67.5105   92.8027   11.1801 N.ar    1  UNL1       -0.1478
     29 N          68.4957   91.9242   10.4675 N.ar    1  UNL1       -0.1447
     30 C          68.9101   92.6211    9.2055 C.ar    1  UNL1        0.1446
     31 C          68.1811   93.9304    9.1381 C.ar    1  UNL1        0.1446
     32 N          67.3161   94.0425   10.3585 N.ar    1  UNL1       -0.1447
@<TRIPOS>BOND
     1     1     2    2
     2     2     9    1
     3     9    10   ar
     4    10    11   ar
     5    11    12   ar
     6    12    13   ar
     7    13    14   ar
     8    14    15    1
     9    15    16   ar
    10    16    17   ar
    11    17    18   ar
    12    18    19   ar
    13     2     3   am
    14     3     4    1
    15     4     5    1
    16     5     6    1
    17     6     7    1
    18     7     8    1
    19     8    20    1
    20    20    21    1
    21    21    22   ar
    22    22    23   ar
    23    23    28    1
    24    28    29   ar
    25    29    30   ar
    26    30    31   ar
    27    31    32   ar
    28    23    24   ar
    29    24    25   ar
    30    25    26   ar
    31    26    27    1
    32    14     9   ar
    33    19    15   ar
    34     8     3    1
    35    26    21   ar
    36    32    28   ar
@<TRIPOS>MOLECULE
*****
 32 36 0 0 0
SMALL
GASTEIGER

@<TRIPOS>ATOM
      1 O          64.5157   85.5140   12.7856 O.2     1  UNL1       -0.2699
      2 C          63.6901   84.8113   13.8223 C.2     1  UNL1        0.2506
      3 N          63.3006   85.5265   15.0819 N.am    1  UNL1       -0.2723
      4 C          62.4750   84.8238   16.1186 C.3     1  UNL1        0.1257
      5 C          62.0855   85.5391   17.3784 C.3     1  UNL1        0.1637
      6 O          62.5216   86.9568   17.6014 O.3     1  UNL1       -0.3502
      7 C          63.3472   87.6594   16.5647 C.3     1  UNL1        0.1622
      8 C          63.7367   86.9443   15.3050 C.3     1  UNL1        0.1096
      9 C          63.2540   83.3935   13.5992 C.ar    1  UNL1        0.0729
     10 C          63.2763   82.4144   14.7354 C.ar    1  UNL1        0.0061
     11 C          62.8403   80.9967   14.5124 C.ar    1  UNL1        0.0002
     12 C          62.3819   80.5580   13.1532 C.ar    1  UNL1        0.0016
     13 C          62.3595   81.5371   12.0171 C.ar    1  UNL1        0.0211
     14 C          62.7956   82.9549   12.2401 C.ar    1  UNL1        0.1072
     15 N          62.7732   83.9339   11.1039 N.ar    1  UNL1       -0.1477
     16 N          63.6214   83.8704    9.8684 N.ar    1  UNL1       -0.1447
     17 C          63.2711   85.0457    9.0046 C.ar    1  UNL1        0.1446
     18 C          62.2064   85.8356    9.7063 C.ar    1  UNL1        0.1446
     19 N          61.8987   85.1485   11.0037 N.ar    1  UNL1       -0.1447
     20 C          64.5623   87.6469   14.2683 C.3     1  UNL1        0.0496
     21 C          63.9457   88.7175   13.4177 C.ar    1  UNL1       -0.0083
     22 C          62.9056   88.3591   12.3981 C.ar    1  UNL1        0.0175
     23 C          62.2890   89.4298   11.5474 C.ar    1  UNL1        0.1026
     24 C          62.7125   90.8588   11.7164 C.ar    1  UNL1        0.0218
     25 C          63.7526   91.2171   12.7361 C.ar    1  UNL1        0.0127
     26 C          64.3692   90.1465   13.5868 C.ar    1  UNL1        0.0538
     27 CL         65.4093   90.5049   14.6064 Cl      1  UNL1       -0.0826
     28 N          61.2489   89.0714   10.5277 N.ar    1  UNL1       -0.1478
     29 N          60.0632   88.1807   10.7532 N.ar    1  UNL1       -0.1447
     30 C          59.2934   88.0996    9.4684 C.ar    1  UNL1        0.1446
     31 C          60.0034   88.9401    8.4488 C.ar    1  UNL1        0.1446
     32 N          61.2119   89.5406    9.1035 N.ar    1  UNL1       -0.1447
@<TRIPOS>BOND
     1     1     2    2
     2     2     9    1
     3     9    10   ar
     4    10    11   ar
     5    11    12   ar
     6    12    13   ar
     7    13    14   ar
     8    14    15    1
     9    15    16   ar
    10    16    17   ar
    11    17    18   ar
    12    18    19   ar
    13     2     3   am
    14     3     4    1
    15     4     5    1
    16     5     6    1
    17     6     7    1
    18     7     8    1
    19     8    20    1
    20    20    21    1
    21    21    22   ar
    22    22    23   ar
    23    23    28    1
    24    28    29   ar
    25    29    30   ar
    26    30    31   ar
    27    31    32   ar
    28    23    24   ar
    29    24    25   ar
    30    25    26   ar
    31    26    27    1
    32    14     9   ar
    33    19    15   ar
    34     8     3    1
    35    26    21   ar
    36    32    28   ar
@<TRIPOS>MOLECULE
*****
 32 36 0 0 0
SMALL
GASTEIGER

@<TRIPOS>ATOM
      1 O          63.0863   89.5550   10.8781 O.2     1  UNL1       -0.2699
      2 C          62.7171   88.1124   11.0586 C.2     1  UNL1        0.2506
      3 N          63.1454   87.3775   12.2940 N.am    1  UNL1       -0.2723
      4 C          62.7762   85.9348   12.4745 C.3     1  UNL1        0.1257
      5 C          63.2046   85.1999   13.7100 C.3     1  UNL1        0.1637
      6 O          64.0022   85.9076   14.7650 O.3     1  UNL1       -0.3502
      7 C          64.3714   87.3502   14.5845 C.3     1  UNL1        0.1622
      8 C          63.9430   88.0851   13.3491 C.3     1  UNL1        0.1096
      9 C          61.9194   87.4047   10.0035 C.ar    1  UNL1        0.0729
     10 C          62.5783   86.3839    9.1239 C.ar    1  UNL1        0.0061
     11 C          61.7808   85.6762    8.0688 C.ar    1  UNL1        0.0002
     12 C          60.3244   85.9894    7.8935 C.ar    1  UNL1        0.0016
     13 C          59.6655   87.0102    8.7732 C.ar    1  UNL1        0.0211
     14 C          60.4631   87.7179    9.8282 C.ar    1  UNL1        0.1072
     15 N          59.8042   88.7387   10.7078 N.ar    1  UNL1       -0.1477
     16 N          59.1184   88.4663   12.0138 N.ar    1  UNL1       -0.1447
     17 C          58.6058   89.7705   12.5491 C.ar    1  UNL1        0.1446
     18 C          58.9748   90.8489   11.5740 C.ar    1  UNL1        0.1446
     19 N          59.7155   90.2112   10.4360 N.ar    1  UNL1       -0.1447
     20 C          64.3123   89.5277   13.1686 C.3     1  UNL1        0.0496
     21 C          64.5715   90.3912   14.3675 C.ar    1  UNL1       -0.0083
     22 C          65.8772   91.1175   14.5003 C.ar    1  UNL1        0.0175
     23 C          66.1365   91.9810   15.6992 C.ar    1  UNL1        0.1026
     24 C          65.0902   92.1181   16.7651 C.ar    1  UNL1        0.0218
     25 C          63.7845   91.3917   16.6322 C.ar    1  UNL1        0.0127
     26 C          63.5252   90.5283   15.4334 C.ar    1  UNL1        0.0538
     27 CL         62.2195   89.8020   15.3006 Cl      1  UNL1       -0.0826
     28 N          67.4422   92.7073   15.8320 N.ar    1  UNL1       -0.1478
     29 N          68.7665   92.0865   16.1650 N.ar    1  UNL1       -0.1447
     30 C          69.7956   93.1774   16.1940 C.ar    1  UNL1        0.1446
     31 C          69.1073   94.4725   15.8789 C.ar    1  UNL1        0.1446
     32 N          67.6528   94.1819   15.6551 N.ar    1  UNL1       -0.1447
@<TRIPOS>BOND
     1     1     2    2
     2     2     9    1
     3     9    10   ar
     4    10    11   ar
     5    11    12   ar
     6    12    13   ar
     7    13    14   ar
     8    14    15    1
     9    15    16   ar
    10    16    17   ar
    11    17    18   ar
    12    18    19   ar
    13     2     3   am
    14     3     4    1
    15     4     5    1
    16     5     6    1
    17     6     7    1
    18     7     8    1
    19     8    20    1
    20    20    21    1
    21    21    22   ar
    22    22    23   ar
    23    23    28    1
    24    28    29   ar
    25    29    30   ar
    26    30    31   ar
    27    31    32   ar
    28    23    24   ar
    29    24    25   ar
    30    25    26   ar
    31    26    27    1
    32    14     9   ar
    33    19    15   ar
    34     8     3    1
    35    26    21   ar
    36    32    28   ar
@<TRIPOS>MOLECULE
*****
 32 36 0 0 0
SMALL
GASTEIGER

@<TRIPOS>ATOM
      1 O          63.5332   88.4283   12.4067 O.2     1  UNL1       -0.2699
      2 C          63.5050   87.3303   13.4283 C.2     1  UNL1        0.2506
      3 N          63.3922   87.6649   14.8861 N.am    1  UNL1       -0.2723
      4 C          63.3640   86.5669   15.9076 C.3     1  UNL1        0.1257
      5 C          63.2512   86.9016   17.3655 C.3     1  UNL1        0.1637
      6 O          63.1667   88.3342   17.8018 O.3     1  UNL1       -0.3502
      7 C          63.1950   89.4322   16.7802 C.3     1  UNL1        0.1622
      8 C          63.3078   89.0976   15.3224 C.3     1  UNL1        0.1096
      9 C          63.5894   85.8976   12.9919 C.ar    1  UNL1        0.0729
     10 C          64.4526   84.9326   13.7493 C.ar    1  UNL1        0.0061
     11 C          64.5371   83.5000   13.3130 C.ar    1  UNL1        0.0002
     12 C          63.7585   83.0324   12.1193 C.ar    1  UNL1        0.0016
     13 C          62.8953   83.9974   11.3619 C.ar    1  UNL1        0.0211
     14 C          62.8108   85.4300   11.7982 C.ar    1  UNL1        0.1072
     15 N          61.9476   86.3950   11.0408 N.ar    1  UNL1       -0.1477
     16 N          60.6981   87.0489   11.5517 N.ar    1  UNL1       -0.1447
     17 C          60.1607   87.9336   10.4662 C.ar    1  UNL1        0.1446
     18 C          61.0780   87.8265    9.2842 C.ar    1  UNL1        0.1446
     19 N          62.1824   86.8756    9.6394 N.ar    1  UNL1       -0.1447
     20 C          63.3360   90.1956   14.3009 C.3     1  UNL1        0.0496
     21 C          64.5112   91.1252   14.2313 C.ar    1  UNL1       -0.0083
     22 C          65.2101   91.3539   12.9239 C.ar    1  UNL1        0.0175
     23 C          66.3853   92.2835   12.8543 C.ar    1  UNL1        0.1026
     24 C          66.8616   92.9843   14.0920 C.ar    1  UNL1        0.0218
     25 C          66.1626   92.7556   15.3994 C.ar    1  UNL1        0.0127
     26 C          64.9874   91.8260   15.4690 C.ar    1  UNL1        0.0538
     27 CL         64.2885   91.5973   16.7764 Cl      1  UNL1       -0.0826
     28 N          67.0842   92.5122   11.5469 N.ar    1  UNL1       -0.1478
     29 N          68.3982   91.9182   11.1339 N.ar    1  UNL1       -0.1447
     30 C          68.7179   92.4139    9.7548 C.ar    1  UNL1        0.1446
     31 C          67.6015   93.3143    9.3154 C.ar    1  UNL1        0.1446
     32 N          66.5918   93.3750   10.4230 N.ar    1  UNL1       -0.1447
@<TRIPOS>BOND
     1     1     2    2
     2     2     9    1
     3     9    10   ar
     4    10    11   ar
     5    11    12   ar
     6    12    13   ar
     7    13    14   ar
     8    14    15    1
     9    15    16   ar
    10    16    17   ar
    11    17    18   ar
    12    18    19   ar
    13     2     3   am
    14     3     4    1
    15     4     5    1
    16     5     6    1
    17     6     7    1
    18     7     8    1
    19     8    20    1
    20    20    21    1
    21    21    22   ar
    22    22    23   ar
    23    23    28    1
    24    28    29   ar
    25    29    30   ar
    26    30    31   ar
    27    31    32   ar
    28    23    24   ar
    29    24    25   ar
    30    25    26   ar
    31    26    27    1
    32    14     9   ar
    33    19    15   ar
    34     8     3    1
    35    26    21   ar
    36    32    28   ar
