@<TRIPOS>MOLECULE
*****
 31 35 0 0 0
SMALL
GASTEIGER

@<TRIPOS>ATOM
      1 N          61.8254   88.1086   11.1278 N.3     1  UNL1       -0.2712
      2 C          61.4685   89.4405   10.5370 C.3     1  UNL1        0.0739
      3 C          62.1895   90.5009   11.3152 C.3     1  UNL1        0.0386
      4 C          62.9920   89.8245   12.3869 C.3     1  UNL1        0.0945
      5 C          62.7670   88.3460   12.2711 C.3     1  UNL1        0.0922
      6 N          63.8661   90.5068   13.3971 N.am    1  UNL1       -0.2600
      7 C          65.1187   91.2041   12.9559 C.3     1  UNL1        0.1229
      8 C          65.9929   91.8864   13.9661 C.ar    1  UNL1        0.0112
      9 C          67.2455   92.5837   13.5250 C.ar    1  UNL1       -0.0014
     10 C          68.1195   93.2660   14.5352 C.ar    1  UNL1       -0.0002
     11 C          67.7410   93.2509   15.9865 C.ar    1  UNL1        0.0013
     12 C          66.4884   92.5536   16.4277 C.ar    1  UNL1        0.0144
     13 C          65.6143   91.8713   15.4175 C.ar    1  UNL1        0.0492
     14 N          64.3616   91.1740   15.8587 N.am    1  UNL1       -0.2684
     15 C          63.4876   90.4917   14.8485 C.2     1  UNL1        0.3079
     16 O          62.2349   89.7943   15.2896 O.2     1  UNL1       -0.2522
     17 H          64.1132   91.1641   16.8112 H       1  UNL1        0.1564
     18 C          61.3280   86.7738   10.6578 C.3     1  UNL1        0.0722
     19 C          62.1274   85.6612   10.7091 C.2     1  UNL1        0.4048
     20 O          61.5210   86.3036   11.9214 O.2     1  UNL1       -0.2262
     21 N          62.9912   84.4441   10.8582 N.am    1  UNL1       -0.2493
     22 C          63.6620   83.6971    9.7436 C.3     1  UNL1        0.0786
     23 C          64.4213   82.5515   10.3446 C.3     1  UNL1        0.0216
     24 C          64.2197   82.5904   11.8305 C.3     1  UNL1        0.0216
     25 C          63.3359   83.7601   12.1479 C.3     1  UNL1        0.0786
     26 C          62.4491   84.9818   12.1682 C.3     1  UNL1        0.0214
     27 C          62.1918   85.5566   10.8068 C.3     1  UNL1        0.0193
     28 C          62.7983   84.9143    9.5946 C.3     1  UNL1        0.0214
     29 O          61.8701   86.2361    9.3477 O.3     1  UNL1       -0.4345
     30 C          60.1610   85.9405    7.4134 C.3     1  UNL1        0.0513
     31 C          60.4664   86.3343    8.8281 C.3     1  UNL1        0.2102
@<TRIPOS>BOND
     1    30    31    1
     2    31    29    1
     3    29    19    1
     4    19    20    2
     5    19    21   am
     6    21    22    1
     7    22    23    1
     8    23    24    1
     9    25    24    1
    10    25    26    1
    11    26    27    1
    12    27    18    1
    13    18     1    1
    14     1     2    1
    15     2     3    1
    16     3     4    1
    17     4     6    1
    18     6     7    1
    19     7     8    1
    20     8     9   ar
    21     9    10   ar
    22    10    11   ar
    23    11    12   ar
    24    12    13   ar
    25    13    14    1
    26    14    15   am
    27    15    16    2
    28     4     5    1
    29    27    28    1
    30    25    21    1
    31     5     1    1
    32    28    22    1
    33    15     6   am
    34    13     8   ar
    35    14    17    1
@<TRIPOS>MOLECULE
*****
 31 35 0 0 0
SMALL
GASTEIGER

@<TRIPOS>ATOM
      1 N          61.3886   87.9518   11.1399 N.3     1  UNL1       -0.2712
      2 C          60.3642   88.9938   11.4793 C.3     1  UNL1        0.0739
      3 C          61.0862   90.2019   11.9981 C.3     1  UNL1        0.0386
      4 C          62.5567   89.9067   11.9794 C.3     1  UNL1        0.0945
      5 C          62.7437   88.5161   11.4490 C.3     1  UNL1        0.0922
      6 N          63.6488   90.8385   12.4146 N.am    1  UNL1       -0.2600
      7 C          64.1194   90.8291   13.8388 C.3     1  UNL1        0.1229
      8 C          65.2114   91.7608   14.2741 C.ar    1  UNL1        0.0112
      9 C          65.6820   91.7514   15.6982 C.ar    1  UNL1       -0.0014
     10 C          66.7740   92.6832   16.1334 C.ar    1  UNL1       -0.0002
     11 C          67.3953   93.6244   15.1444 C.ar    1  UNL1        0.0013
     12 C          66.9247   93.6338   13.7202 C.ar    1  UNL1        0.0144
     13 C          65.8327   92.7020   13.2850 C.ar    1  UNL1        0.0492
     14 N          65.3620   92.7114   11.8608 N.am    1  UNL1       -0.2684
     15 C          64.2701   91.7796   11.4256 C.2     1  UNL1        0.3079
     16 O          63.7994   91.7890   10.0013 O.2     1  UNL1       -0.2522
     17 H          65.7698   93.3291   11.2116 H       1  UNL1        0.1564
     18 C          61.1073   86.5856   10.5883 C.3     1  UNL1        0.0722
     19 C          62.0147   85.5648   10.7069 C.2     1  UNL1        0.4048
     20 O          61.3042   86.1828   11.8744 O.2     1  UNL1       -0.2262
     21 N          62.9935   84.4501   10.9291 N.am    1  UNL1       -0.2493
     22 C          63.7754   83.7382    9.8652 C.3     1  UNL1        0.0786
     23 C          64.6274   82.6996   10.5329 C.3     1  UNL1        0.0216
     24 C          64.3721   82.7698   12.0094 C.3     1  UNL1        0.0216
     25 C          63.3622   83.8516   12.2542 C.3     1  UNL1        0.0786
     26 C          62.3543   84.9743   12.2003 C.3     1  UNL1        0.0214
     27 C          62.0861   85.4709   10.8105 C.3     1  UNL1        0.0193
     28 C          62.7966   84.8528    9.6430 C.3     1  UNL1        0.0214
     29 O          61.7465   86.0614    9.3171 O.3     1  UNL1       -0.4345
     30 C          59.9706   85.9828    7.4223 C.3     1  UNL1        0.0513
     31 C          60.3345   86.2595    8.8509 C.3     1  UNL1        0.2102
@<TRIPOS>BOND
     1    30    31    1
     2    31    29    1
     3    29    19    1
     4    19    20    2
     5    19    21   am
     6    21    22    1
     7    22    23    1
     8    23    24    1
     9    25    24    1
    10    25    26    1
    11    26    27    1
    12    27    18    1
    13    18     1    1
    14     1     2    1
    15     2     3    1
    16     3     4    1
    17     4     6    1
    18     6     7    1
    19     7     8    1
    20     8     9   ar
    21     9    10   ar
    22    10    11   ar
    23    11    12   ar
    24    12    13   ar
    25    13    14    1
    26    14    15   am
    27    15    16    2
    28     4     5    1
    29    27    28    1
    30    25    21    1
    31     5     1    1
    32    28    22    1
    33    15     6   am
    34    13     8   ar
    35    14    17    1
@<TRIPOS>MOLECULE
*****
 31 35 0 0 0
SMALL
GASTEIGER

@<TRIPOS>ATOM
      1 N          64.7685   91.4658   13.3489 N.3     1  UNL1       -0.2712
      2 C          63.8836   91.0200   14.4750 C.3     1  UNL1        0.0739
      3 C          62.8956   90.0340   13.9258 C.3     1  UNL1        0.0386
      4 C          63.1699   89.8705   12.4602 C.3     1  UNL1        0.0945
      5 C          64.3274   90.7553   12.1036 C.3     1  UNL1        0.0922
      6 N          62.4186   88.9786   11.5167 N.am    1  UNL1       -0.2600
      7 C          61.5994   89.5764   10.4115 C.3     1  UNL1        0.1229
      8 C          60.8480   88.6845    9.4680 C.ar    1  UNL1        0.0112
      9 C          60.0288   89.2823    8.3628 C.ar    1  UNL1       -0.0014
     10 C          59.2776   88.3904    7.4194 C.ar    1  UNL1       -0.0002
     11 C          59.3455   86.9007    7.5811 C.ar    1  UNL1        0.0013
     12 C          60.1647   86.3029    8.6863 C.ar    1  UNL1        0.0144
     13 C          60.9160   87.1948    9.6298 C.ar    1  UNL1        0.0492
     14 N          61.7352   86.5970   10.7350 N.am    1  UNL1       -0.2684
     15 C          62.4865   87.4889   11.6784 C.2     1  UNL1        0.3079
     16 O          63.3057   86.8910   12.7837 O.2     1  UNL1       -0.2522
     17 H          61.7798   85.6192   10.8412 H       1  UNL1        0.1564
     18 C          65.8965   92.4494   13.4502 C.3     1  UNL1        0.0722
     19 C          66.1067   93.4230   12.5082 C.2     1  UNL1        0.4048
     20 O          65.9187   91.9727   12.1745 O.2     1  UNL1       -0.2262
     21 N          66.3316   94.4217   11.4120 N.am    1  UNL1       -0.2493
     22 C          66.5344   95.8972   11.5914 C.3     1  UNL1        0.0786
     23 C          66.7214   96.5078   10.2340 C.3     1  UNL1        0.0216
     24 C          66.6342   95.4098    9.2158 C.3     1  UNL1        0.0216
     25 C          66.3933   94.1205    9.9438 C.3     1  UNL1        0.0786
     26 C          66.1584   92.9966   10.9240 C.3     1  UNL1        0.0214
     27 C          66.1215   93.4482   12.3539 C.3     1  UNL1        0.0193
     28 C          66.3095   94.8984   12.6876 C.3     1  UNL1        0.0214
     29 O          66.0698   93.8745   13.9382 O.3     1  UNL1       -0.4345
     30 C          67.9719   93.7780   15.7054 C.3     1  UNL1        0.0513
     31 C          66.8346   93.1180   14.9835 C.3     1  UNL1        0.2102
@<TRIPOS>BOND
     1    30    31    1
     2    31    29    1
     3    29    19    1
     4    19    20    2
     5    19    21   am
     6    21    22    1
     7    22    23    1
     8    23    24    1
     9    25    24    1
    10    25    26    1
    11    26    27    1
    12    27    18    1
    13    18     1    1
    14     1     2    1
    15     2     3    1
    16     3     4    1
    17     4     6    1
    18     6     7    1
    19     7     8    1
    20     8     9   ar
    21     9    10   ar
    22    10    11   ar
    23    11    12   ar
    24    12    13   ar
    25    13    14    1
    26    14    15   am
    27    15    16    2
    28     4     5    1
    29    27    28    1
    30    25    21    1
    31     5     1    1
    32    28    22    1
    33    15     6   am
    34    13     8   ar
    35    14    17    1
@<TRIPOS>MOLECULE
*****
 31 35 0 0 0
SMALL
GASTEIGER

@<TRIPOS>ATOM
      1 N          64.3486   91.7031   12.4147 N.3     1  UNL1       -0.2712
      2 C          63.6846   91.0302   13.5794 C.3     1  UNL1        0.0739
      3 C          62.7173   90.0184   13.0404 C.3     1  UNL1        0.0386
      4 C          62.7833   90.0660   11.5427 C.3     1  UNL1        0.0945
      5 C          63.7915   91.1071   11.1559 C.3     1  UNL1        0.0922
      6 N          61.9819   89.2207   10.5975 N.am    1  UNL1       -0.2600
      7 C          62.5852   87.9831   10.0023 C.3     1  UNL1        0.1229
      8 C          61.7838   87.1379    9.0572 C.ar    1  UNL1        0.0112
      9 C          62.3871   85.9002    8.4620 C.ar    1  UNL1       -0.0014
     10 C          61.5857   85.0551    7.5169 C.ar    1  UNL1       -0.0002
     11 C          60.1809   85.4475    7.1669 C.ar    1  UNL1        0.0013
     12 C          59.5775   86.6851    7.7620 C.ar    1  UNL1        0.0144
     13 C          60.3790   87.5303    8.7071 C.ar    1  UNL1        0.0492
     14 N          59.7756   88.7680    9.3023 N.am    1  UNL1       -0.2684
     15 C          60.5771   89.6132   10.2474 C.2     1  UNL1        0.3079
     16 O          59.9737   90.8509   10.8426 O.2     1  UNL1       -0.2522
     17 H          58.8536   89.0256    9.0726 H       1  UNL1        0.1564
     18 C          65.3871   92.7824   12.4948 C.3     1  UNL1        0.0722
     19 C          66.3066   92.8596   13.5088 C.2     1  UNL1        0.4048
     20 O          65.7884   91.5652   12.9557 O.2     1  UNL1       -0.2262
     21 N          67.3134   92.8506   14.6206 N.am    1  UNL1       -0.2493
     22 C          67.9190   94.0588   15.2714 C.3     1  UNL1        0.0786
     23 C          68.8714   93.5867   16.3299 C.3     1  UNL1        0.0216
     24 C          68.8543   92.0868   16.3332 C.3     1  UNL1        0.0216
     25 C          67.8915   91.6319   15.2767 C.3     1  UNL1        0.0786
     26 C          66.8827   91.4699   14.1653 C.3     1  UNL1        0.0214
     27 C          66.3940   92.7734   13.6066 C.3     1  UNL1        0.0193
     28 C          66.9122   94.0678   14.1597 C.3     1  UNL1        0.0214
     29 O          65.8179   94.1632   12.9501 O.3     1  UNL1       -0.4345
     30 C          66.1428   95.9879   11.1294 C.3     1  UNL1        0.0513
     31 C          66.1480   94.5445   11.5374 C.3     1  UNL1        0.2102
@<TRIPOS>BOND
     1    30    31    1
     2    31    29    1
     3    29    19    1
     4    19    20    2
     5    19    21   am
     6    21    22    1
     7    22    23    1
     8    23    24    1
     9    25    24    1
    10    25    26    1
    11    26    27    1
    12    27    18    1
    13    18     1    1
    14     1     2    1
    15     2     3    1
    16     3     4    1
    17     4     6    1
    18     6     7    1
    19     7     8    1
    20     8     9   ar
    21     9    10   ar
    22    10    11   ar
    23    11    12   ar
    24    12    13   ar
    25    13    14    1
    26    14    15   am
    27    15    16    2
    28     4     5    1
    29    27    28    1
    30    25    21    1
    31     5     1    1
    32    28    22    1
    33    15     6   am
    34    13     8   ar
    35    14    17    1
@<TRIPOS>MOLECULE
*****
 31 35 0 0 0
SMALL
GASTEIGER

@<TRIPOS>ATOM
      1 N          64.3302   91.3921   13.0130 N.3     1  UNL1       -0.2712
      2 C          63.5904   90.7641   14.1569 C.3     1  UNL1        0.0739
      3 C          62.5442   89.8524   13.5875 C.3     1  UNL1        0.0386
      4 C          62.6374   89.9167   12.0918 C.3     1  UNL1        0.0945
      5 C          63.7412   90.8683   11.7366 C.3     1  UNL1        0.0922
      6 N          61.7777   89.1620   11.1215 N.am    1  UNL1       -0.2600
      7 C          62.3639   88.0424   10.3136 C.3     1  UNL1        0.1229
      8 C          61.5042   87.2877    9.3432 C.ar    1  UNL1        0.0112
      9 C          62.0904   86.1681    8.5353 C.ar    1  UNL1       -0.0014
     10 C          61.2308   85.4135    7.5650 C.ar    1  UNL1       -0.0002
     11 C          59.7849   85.7785    7.4027 C.ar    1  UNL1        0.0013
     12 C          59.1988   86.8981    8.2106 C.ar    1  UNL1        0.0144
     13 C          60.0584   87.6527    9.1809 C.ar    1  UNL1        0.0492
     14 N          59.4722   88.7724    9.9889 N.am    1  UNL1       -0.2684
     15 C          60.3319   89.5270   10.9592 C.2     1  UNL1        0.3079
     16 O          59.7457   90.6467   11.7672 O.2     1  UNL1       -0.2522
     17 H          58.5233   89.0120    9.8824 H       1  UNL1        0.1564
     18 C          65.4605   92.3717   13.1256 C.3     1  UNL1        0.0722
     19 C          66.3248   92.5680   12.0796 C.2     1  UNL1        0.4048
     20 O          64.9551   93.1754   12.1490 O.2     1  UNL1       -0.2262
     21 N          67.2053   92.8366   10.8954 N.am    1  UNL1       -0.2493
     22 C          68.5912   92.3016   10.6876 C.3     1  UNL1        0.0786
     23 C          69.0969   92.8218    9.3747 C.3     1  UNL1        0.0216
     24 C          68.0236   93.6783    8.7710 C.3     1  UNL1        0.0216
     25 C          66.8545   93.6875    9.7109 C.3     1  UNL1        0.0786
     26 C          65.8516   93.5165   10.8264 C.3     1  UNL1        0.0214
     27 C          66.3410   92.6403   11.9413 C.3     1  UNL1        0.0193
     28 C          67.7107   92.0329   11.8719 C.3     1  UNL1        0.0214
     29 O          66.8142   91.6918   13.1946 O.3     1  UNL1       -0.4345
     30 C          68.1075   91.9082   15.4375 C.3     1  UNL1        0.0513
     31 C          66.9160   92.2379   14.5880 C.3     1  UNL1        0.2102
@<TRIPOS>BOND
     1    30    31    1
     2    31    29    1
     3    29    19    1
     4    19    20    2
     5    19    21   am
     6    21    22    1
     7    22    23    1
     8    23    24    1
     9    25    24    1
    10    25    26    1
    11    26    27    1
    12    27    18    1
    13    18     1    1
    14     1     2    1
    15     2     3    1
    16     3     4    1
    17     4     6    1
    18     6     7    1
    19     7     8    1
    20     8     9   ar
    21     9    10   ar
    22    10    11   ar
    23    11    12   ar
    24    12    13   ar
    25    13    14    1
    26    14    15   am
    27    15    16    2
    28     4     5    1
    29    27    28    1
    30    25    21    1
    31     5     1    1
    32    28    22    1
    33    15     6   am
    34    13     8   ar
    35    14    17    1
@<TRIPOS>MOLECULE
*****
 31 35 0 0 0
SMALL
GASTEIGER

@<TRIPOS>ATOM
      1 N          63.8929   89.8313   15.2155 N.3     1  UNL1       -0.2712
      2 C          63.4038   89.5804   16.6112 C.3     1  UNL1        0.0739
      3 C          63.1350   88.1114   16.7511 C.3     1  UNL1        0.0386
      4 C          63.4581   87.4543   15.4420 C.3     1  UNL1        0.0945
      5 C          63.9265   88.5171   14.4929 C.3     1  UNL1        0.0922
      6 N          63.3344   85.9910   15.1357 N.am    1  UNL1       -0.2600
      7 C          63.8283   85.4549   13.8248 C.3     1  UNL1        0.1229
      8 C          63.7047   83.9916   13.5185 C.ar    1  UNL1        0.0112
      9 C          64.1986   83.4555   12.2076 C.ar    1  UNL1       -0.0014
     10 C          64.0749   81.9923   11.9013 C.ar    1  UNL1       -0.0002
     11 C          63.4573   81.0653   12.9059 C.ar    1  UNL1        0.0013
     12 C          62.9634   81.6015   14.2168 C.ar    1  UNL1        0.0144
     13 C          63.0871   83.0647   14.5231 C.ar    1  UNL1        0.0492
     14 N          62.5932   83.6009   15.8341 N.am    1  UNL1       -0.2684
     15 C          62.7168   85.0640   16.1403 C.2     1  UNL1        0.3079
     16 O          62.2229   85.6003   17.4513 O.2     1  UNL1       -0.2522
     17 H          62.1878   82.9925   16.4935 H       1  UNL1        0.1564
     18 C          64.2805   91.1624   14.6429 C.3     1  UNL1        0.0722
     19 C          65.5541   91.6453   14.7992 C.2     1  UNL1        0.4048
     20 O          64.4920   91.7502   15.8533 O.2     1  UNL1       -0.2262
     21 N          66.9229   92.2022   15.0557 N.am    1  UNL1       -0.2493
     22 C          68.0803   92.1713   14.1019 C.3     1  UNL1        0.0786
     23 C          69.2476   92.8379   14.7679 C.3     1  UNL1        0.0216
     24 C          68.8116   93.2806   16.1331 C.3     1  UNL1        0.0216
     25 C          67.3749   92.8877   16.3110 C.3     1  UNL1        0.0786
     26 C          65.9562   92.3812   16.2101 C.3     1  UNL1        0.0214
     27 C          65.6494   91.7194   14.8995 C.3     1  UNL1        0.0193
     28 C          66.7114   91.6144   13.8454 C.3     1  UNL1        0.0214
     29 O          65.2472   90.9834   13.4885 O.3     1  UNL1       -0.4345
     30 C          64.6991   91.9972   11.1600 C.3     1  UNL1        0.0513
     31 C          64.2660   91.6107   12.5431 C.3     1  UNL1        0.2102
@<TRIPOS>BOND
     1    30    31    1
     2    31    29    1
     3    29    19    1
     4    19    20    2
     5    19    21   am
     6    21    22    1
     7    22    23    1
     8    23    24    1
     9    25    24    1
    10    25    26    1
    11    26    27    1
    12    27    18    1
    13    18     1    1
    14     1     2    1
    15     2     3    1
    16     3     4    1
    17     4     6    1
    18     6     7    1
    19     7     8    1
    20     8     9   ar
    21     9    10   ar
    22    10    11   ar
    23    11    12   ar
    24    12    13   ar
    25    13    14    1
    26    14    15   am
    27    15    16    2
    28     4     5    1
    29    27    28    1
    30    25    21    1
    31     5     1    1
    32    28    22    1
    33    15     6   am
    34    13     8   ar
    35    14    17    1
@<TRIPOS>MOLECULE
*****
 31 35 0 0 0
SMALL
GASTEIGER

@<TRIPOS>ATOM
      1 N          61.6328   88.0801   11.4370 N.3     1  UNL1       -0.2712
      2 C          60.6931   89.2403   11.2918 C.3     1  UNL1        0.0739
      3 C          61.4312   90.4863   11.6824 C.3     1  UNL1        0.0386
      4 C          62.8270   90.0962   12.0691 C.3     1  UNL1        0.0945
      5 C          62.9517   88.6091   11.9174 C.3     1  UNL1        0.0922
      6 N          63.9085   91.0295   12.5270 N.am    1  UNL1       -0.2600
      7 C          64.4052   90.9655   13.9409 C.3     1  UNL1        0.1229
      8 C          65.4867   91.8988   14.3989 C.ar    1  UNL1        0.0112
      9 C          65.9834   91.8348   15.8128 C.ar    1  UNL1       -0.0014
     10 C          67.0648   92.7680   16.2706 C.ar    1  UNL1       -0.0002
     11 C          67.6495   93.7652   15.3146 C.ar    1  UNL1        0.0013
     12 C          67.1527   93.8291   13.9007 C.ar    1  UNL1        0.0144
     13 C          66.0713   92.8959   13.4429 C.ar    1  UNL1        0.0492
     14 N          65.5745   92.9598   12.0289 N.am    1  UNL1       -0.2684
     15 C          64.4931   92.0266   11.5710 C.2     1  UNL1        0.3079
     16 O          63.9963   92.0905   10.1571 O.2     1  UNL1       -0.2522
     17 H          65.9582   93.6142   11.4014 H       1  UNL1        0.1564
     18 C          61.3103   86.6432   11.1519 C.3     1  UNL1        0.0722
     19 C          61.5351   86.1147    9.9070 C.2     1  UNL1        0.4048
     20 O          60.2958   86.8763   10.2734 O.2     1  UNL1       -0.2262
     21 N          61.6980   85.5707    8.5187 N.am    1  UNL1       -0.2493
     22 C          62.8754   84.7935    8.0089 C.3     1  UNL1        0.0786
     23 C          62.6172   84.4508    6.5715 C.3     1  UNL1        0.0216
     24 C          61.2803   85.0161    6.1930 C.3     1  UNL1        0.0216
     25 C          60.7122   85.7083    7.3965 C.3     1  UNL1        0.0786
     26 C          60.3969   86.3168    8.7417 C.3     1  UNL1        0.0214
     27 C          61.4732   86.0991    9.7636 C.3     1  UNL1        0.0193
     28 C          62.7124   85.3375    9.3971 C.3     1  UNL1        0.0214
     29 O          62.6114   85.8971   10.9289 O.3     1  UNL1       -0.4345
     30 C          63.5281   84.5729   12.9676 C.3     1  UNL1        0.0513
     31 C          62.3935   84.9281   12.0530 C.3     1  UNL1        0.2102
@<TRIPOS>BOND
     1    30    31    1
     2    31    29    1
     3    29    19    1
     4    19    20    2
     5    19    21   am
     6    21    22    1
     7    22    23    1
     8    23    24    1
     9    25    24    1
    10    25    26    1
    11    26    27    1
    12    27    18    1
    13    18     1    1
    14     1     2    1
    15     2     3    1
    16     3     4    1
    17     4     6    1
    18     6     7    1
    19     7     8    1
    20     8     9   ar
    21     9    10   ar
    22    10    11   ar
    23    11    12   ar
    24    12    13   ar
    25    13    14    1
    26    14    15   am
    27    15    16    2
    28     4     5    1
    29    27    28    1
    30    25    21    1
    31     5     1    1
    32    28    22    1
    33    15     6   am
    34    13     8   ar
    35    14    17    1
@<TRIPOS>MOLECULE
*****
 31 35 0 0 0
SMALL
GASTEIGER

@<TRIPOS>ATOM
      1 N          63.2843   88.6162   13.0785 N.3     1  UNL1       -0.2712
      2 C          64.2598   88.3651   14.1900 C.3     1  UNL1        0.0739
      3 C          64.3553   86.8825   14.3968 C.3     1  UNL1        0.0386
      4 C          63.4388   86.2173   13.4132 C.3     1  UNL1        0.0945
      5 C          62.7769   87.2888   12.5984 C.3     1  UNL1        0.0922
      6 N          63.2222   84.7400   13.2695 N.am    1  UNL1       -0.2600
      7 C          63.4359   84.0763   11.9414 C.3     1  UNL1        0.1229
      8 C          63.2192   82.5989   11.7977 C.ar    1  UNL1        0.0112
      9 C          63.4329   81.9353   10.4696 C.ar    1  UNL1       -0.0014
     10 C          63.2163   80.4580   10.3259 C.ar    1  UNL1       -0.0002
     11 C          62.7860   79.6444   11.5104 C.ar    1  UNL1        0.0013
     12 C          62.5723   80.3081   12.8384 C.ar    1  UNL1        0.0144
     13 C          62.7889   81.7853   12.9821 C.ar    1  UNL1        0.0492
     14 N          62.5753   82.4491   14.3102 N.am    1  UNL1       -0.2684
     15 C          62.7919   83.9263   14.4539 C.2     1  UNL1        0.3079
     16 O          62.5782   84.5901   15.7820 O.2     1  UNL1       -0.2522
     17 H          62.2928   81.9151   15.0876 H       1  UNL1        0.1564
     18 C          62.8862   89.9590   12.5415 C.3     1  UNL1        0.0722
     19 C          63.8163   90.9244   12.2543 C.2     1  UNL1        0.4048
     20 O          63.5871   90.3770   13.6319 O.2     1  UNL1       -0.2262
     21 N          64.8569   91.9814   12.0308 N.am    1  UNL1       -0.2493
     22 C          65.1966   92.6203   10.7169 C.3     1  UNL1        0.0786
     23 C          66.2902   93.6189   10.9560 C.3     1  UNL1        0.0216
     24 C          66.6263   93.5970   12.4177 C.3     1  UNL1        0.0216
     25 C          65.7405   92.5849   13.0820 C.3     1  UNL1        0.0786
     26 C          64.7382   91.5255   13.4721 C.3     1  UNL1        0.0214
     27 C          63.9268   91.0160   12.3180 C.3     1  UNL1        0.0193
     28 C          64.1560   91.5634   10.9404 C.3     1  UNL1        0.0214
     29 O          63.0049   90.4149   11.1001 O.3     1  UNL1       -0.4345
     30 C          60.6956   89.9729    9.9947 C.3     1  UNL1        0.0513
     31 C          61.5078   90.4985   11.1410 C.3     1  UNL1        0.2102
@<TRIPOS>BOND
     1    30    31    1
     2    31    29    1
     3    29    19    1
     4    19    20    2
     5    19    21   am
     6    21    22    1
     7    22    23    1
     8    23    24    1
     9    25    24    1
    10    25    26    1
    11    26    27    1
    12    27    18    1
    13    18     1    1
    14     1     2    1
    15     2     3    1
    16     3     4    1
    17     4     6    1
    18     6     7    1
    19     7     8    1
    20     8     9   ar
    21     9    10   ar
    22    10    11   ar
    23    11    12   ar
    24    12    13   ar
    25    13    14    1
    26    14    15   am
    27    15    16    2
    28     4     5    1
    29    27    28    1
    30    25    21    1
    31     5     1    1
    32    28    22    1
    33    15     6   am
    34    13     8   ar
    35    14    17    1
@<TRIPOS>MOLECULE
*****
 31 35 0 0 0
SMALL
GASTEIGER

@<TRIPOS>ATOM
      1 N          63.9003   90.5548   12.3262 N.3     1  UNL1       -0.2712
      2 C          62.9009   90.1973   11.2662 C.3     1  UNL1        0.0739
      3 C          62.5547   88.7466   11.4258 C.3     1  UNL1        0.0386
      4 C          63.3401   88.2074   12.5844 C.3     1  UNL1        0.0945
      5 C          64.1717   89.3248   13.1409 C.3     1  UNL1        0.0922
      6 N          63.3008   86.7980   13.0966 N.am    1  UNL1       -0.2600
      7 C          63.0087   85.6662   12.1566 C.3     1  UNL1        0.1229
      8 C          62.9694   84.2569   12.6689 C.ar    1  UNL1        0.0112
      9 C          62.6773   83.1251   11.7289 C.ar    1  UNL1       -0.0014
     10 C          62.6380   81.7159   12.2411 C.ar    1  UNL1       -0.0002
     11 C          62.8908   81.4384   13.6934 C.ar    1  UNL1        0.0013
     12 C          63.1829   82.5702   14.6334 C.ar    1  UNL1        0.0144
     13 C          63.2222   83.9795   14.1212 C.ar    1  UNL1        0.0492
     14 N          63.5143   85.1114   15.0612 N.am    1  UNL1       -0.2684
     15 C          63.5536   86.5206   14.5489 C.2     1  UNL1        0.3079
     16 O          63.8457   87.6525   15.4889 O.2     1  UNL1       -0.2522
     17 H          63.6803   84.9293   16.0144 H       1  UNL1        0.1564
     18 C          64.5194   91.9049   12.5348 C.3     1  UNL1        0.0722
     19 C          65.5995   92.0648   13.3640 C.2     1  UNL1        0.4048
     20 O          64.1978   91.8616   13.8576 O.2     1  UNL1       -0.2262
     21 N          66.7229   92.2314   14.3438 N.am    1  UNL1       -0.2493
     22 C          68.1681   92.4413   14.0009 C.3     1  UNL1        0.0786
     23 C          68.9368   92.5569   15.2838 C.3     1  UNL1        0.0216
     24 C          67.9668   92.4185   16.4195 C.3     1  UNL1        0.0216
     25 C          66.5985   92.2173   15.8385 C.3     1  UNL1        0.0786
     26 C          65.3645   92.0349   14.9882 C.3     1  UNL1        0.0214
     27 C          65.6429   92.0715   13.5147 C.3     1  UNL1        0.0193
     28 C          67.0447   92.2747   13.0211 C.3     1  UNL1        0.0214
     29 O          65.8779   92.1014   11.8904 O.3     1  UNL1       -0.4345
     30 C          66.3327   93.8945   10.0661 C.3     1  UNL1        0.0513
     31 C          65.4102   93.2651   11.0675 C.3     1  UNL1        0.2102
@<TRIPOS>BOND
     1    30    31    1
     2    31    29    1
     3    29    19    1
     4    19    20    2
     5    19    21   am
     6    21    22    1
     7    22    23    1
     8    23    24    1
     9    25    24    1
    10    25    26    1
    11    26    27    1
    12    27    18    1
    13    18     1    1
    14     1     2    1
    15     2     3    1
    16     3     4    1
    17     4     6    1
    18     6     7    1
    19     7     8    1
    20     8     9   ar
    21     9    10   ar
    22    10    11   ar
    23    11    12   ar
    24    12    13   ar
    25    13    14    1
    26    14    15   am
    27    15    16    2
    28     4     5    1
    29    27    28    1
    30    25    21    1
    31     5     1    1
    32    28    22    1
    33    15     6   am
    34    13     8   ar
    35    14    17    1
