@<TRIPOS>MOLECULE
*****
 43 45 0 0 0
SMALL
GASTEIGER

@<TRIPOS>ATOM
      1 C          61.8727   86.2302    9.7887 C.3     1  UNL1        0.0920
      2 C          60.7240   86.0865    8.8348 C.3     1  UNL1        0.2582
      3 S          59.7821   87.2333    8.6170 S.O     1  UNL1        0.0319
      4 O          58.6334   87.0896    7.6631 O.co2   1  UNL1       -0.6812
      5 C          59.9888   88.5238    9.3531 C.3     1  UNL1        0.2736
      6 C          61.1374   88.6675   10.3070 C.3     1  UNL1        0.1416
      7 C          62.0793   87.5207   10.5248 C.3     1  UNL1        0.1353
      8 O          63.2280   87.6644   11.4788 O.3     1  UNL1       -0.3827
      9 H          63.2168   88.5533   11.8669 H       1  UNL1        0.2104
     10 N          61.3441   89.9580   11.0432 N.3     1  UNL1       -0.2887
     11 H          61.6032   89.7136   11.9989 H       1  UNL1        0.1237
     12 C          62.3645   90.9439   10.5565 C.3     1  UNL1        0.0959
     13 C          63.5471   91.2843   11.4141 C.ar    1  UNL1       -0.0034
     14 C          63.6068   90.8047   12.8341 C.ar    1  UNL1       -0.0027
     15 C          64.7894   91.1450   13.6916 C.ar    1  UNL1        0.0028
     16 C          65.9125   91.9651   13.1292 C.ar    1  UNL1        0.0372
     17 C          65.8528   92.4448   11.7092 C.ar    1  UNL1        0.1465
     18 C          64.6701   92.1044   10.8516 C.ar    1  UNL1        0.0343
     19 O          66.9758   93.2648   11.1468 O.3     1  UNL1       -0.4045
     20 C          67.7122   92.7925    9.9283 C.3     1  UNL1        0.5753
     21 F          68.4486   92.3201    8.7099 F       1  UNL1       -0.1328
     22 F          68.4479   91.7864   10.7629 F       1  UNL1       -0.1328
     23 F          66.9765   93.7985    9.0937 F       1  UNL1       -0.1328
     24 C          62.8147   85.0833   10.0066 C.3     1  UNL1        0.0342
     25 C          62.3724   84.0388   13.8097 C.ar    1  UNL1        0.1535
     26 C          62.4935   84.8850   12.5771 C.ar    1  UNL1        0.0341
     27 C          62.6936   84.2370   11.2392 C.ar    1  UNL1       -0.0166
     28 C          62.7727   82.7429   11.1338 C.ar    1  UNL1        0.0268
     29 C          62.6516   81.8967   12.3664 C.ar    1  UNL1        0.1556
     30 F          62.7307   80.4024   12.2610 F       1  UNL1       -0.2028
     31 C          62.4515   82.5447   13.7043 C.ar    1  UNL1        0.1037
     32 N          62.3304   81.6984   14.9369 N.pl3   1  UNL1       -0.3529
     33 H          62.3823   80.7177   14.8677 H       1  UNL1        0.1425
     34 H          62.1991   82.1237   15.8150 H       1  UNL1        0.1425
     35 O          62.1723   84.6868   15.1476 O.3     1  UNL1       -0.4665
     36 C          63.3122   85.3979   15.8146 C.3     1  UNL1        0.2891
     37 C          64.6881   85.3313   15.2208 C.3     1  UNL1        0.4366
     38 F          66.0640   85.2646   14.6270 F       1  UNL1       -0.1663
     39 F          64.5658   86.7589   14.7771 F       1  UNL1       -0.1663
     40 F          64.8105   83.9037   15.6645 F       1  UNL1       -0.1663
     41 C          63.0764   86.1756   17.0754 C.3     1  UNL1        0.1945
     42 C          63.0977   88.7654   16.8693 C.3     1  UNL1        0.1743
     43 O          62.3389   87.4808   17.0246 O.3     1  UNL1       -0.3469
@<TRIPOS>UNITY_ATOM_ATTR
3 1
charge 1
4 1
charge -1
@<TRIPOS>BOND
     1    42    43    1
     2    43    41    1
     3    36    41    1
     4    36    35    1
     5    35    25    1
     6    25    26   ar
     7    26    27   ar
     8    27    24    1
     9     1    24    1
    10     1     2    1
    11     2     3    1
    12     3     4    2
    13     3     5    1
    14     5     6    1
    15     6    10    1
    16    10    12    1
    17    12    13    1
    18    13    14   ar
    19    14    15   ar
    20    15    16   ar
    21    16    17   ar
    22    17    19    1
    23    19    20    1
    24    20    21    1
    25    20    22    1
    26    20    23    1
    27    17    18   ar
    28     6     7    1
    29     7     8    1
    30    27    28   ar
    31    28    29   ar
    32    29    30    1
    33    29    31   ar
    34    31    32    1
    35    36    37    1
    36    37    38    1
    37    37    39    1
    38    37    40    1
    39    31    25   ar
    40     7     1    1
    41    18    13   ar
    42    10    11    1
    43     8     9    1
    44    32    33    1
    45    32    34    1
@<TRIPOS>MOLECULE
*****
 43 45 0 0 0
SMALL
GASTEIGER

@<TRIPOS>ATOM
      1 C          61.8534   86.3794   10.0117 C.3     1  UNL1        0.0920
      2 C          60.7632   86.3811    8.9813 C.3     1  UNL1        0.2582
      3 S          59.8474   87.5629    8.8605 S.O     1  UNL1        0.0319
      4 O          58.7572   87.5646    7.8302 O.co2   1  UNL1       -0.6812
      5 C          60.0218   88.7430    9.7699 C.3     1  UNL1        0.2736
      6 C          61.1119   88.7413   10.8002 C.3     1  UNL1        0.1416
      7 C          62.0278   87.5594   10.9210 C.3     1  UNL1        0.1353
      8 O          63.1180   87.5577   11.9514 O.3     1  UNL1       -0.3827
      9 H          63.0920   88.3888   12.4510 H       1  UNL1        0.2104
     10 N          61.2863   89.9214   11.7096 N.3     1  UNL1       -0.2887
     11 H          60.4763   89.9378   12.3293 H       1  UNL1        0.1237
     12 C          62.5017   90.0220   12.5830 C.3     1  UNL1        0.0959
     13 C          63.5880   91.0002   12.2467 C.ar    1  UNL1       -0.0034
     14 C          63.8213   91.4007   10.8201 C.ar    1  UNL1       -0.0027
     15 C          64.9076   92.3789   10.4838 C.ar    1  UNL1        0.0028
     16 C          65.7606   92.9565   11.5741 C.ar    1  UNL1        0.0372
     17 C          65.5273   92.5560   13.0007 C.ar    1  UNL1        0.1465
     18 C          64.4409   91.5778   13.3370 C.ar    1  UNL1        0.0343
     19 O          66.3803   93.1336   14.0910 O.3     1  UNL1       -0.4045
     20 C          67.2488   92.2343   14.9197 C.3     1  UNL1        0.5753
     21 F          68.1174   91.3349   15.7484 F       1  UNL1       -0.1328
     22 F          67.7238   91.5457   13.6747 F       1  UNL1       -0.1328
     23 F          66.7738   92.9229   16.1648 F       1  UNL1       -0.1328
     24 C          62.7692   85.1976   10.1325 C.3     1  UNL1        0.0342
     25 C          62.3812   83.9460   13.8786 C.ar    1  UNL1        0.1535
     26 C          62.4871   84.8586   12.6929 C.ar    1  UNL1        0.0341
     27 C          62.6634   84.2849   11.3183 C.ar    1  UNL1       -0.0166
     28 C          62.7338   82.7986   11.1293 C.ar    1  UNL1        0.0268
     29 C          62.6280   81.8859   12.3150 C.ar    1  UNL1        0.1556
     30 F          62.6984   80.3995   12.1260 F       1  UNL1       -0.2028
     31 C          62.4517   82.4597   13.6896 C.ar    1  UNL1        0.1037
     32 N          62.3458   81.5470   14.8754 N.pl3   1  UNL1       -0.3529
     33 H          62.3920   80.5714   14.7513 H       1  UNL1        0.1425
     34 H          62.2301   81.9235   15.7776 H       1  UNL1        0.1425
     35 O          62.2049   84.5198   15.2533 O.3     1  UNL1       -0.4665
     36 C          63.3106   85.3152   15.8815 C.3     1  UNL1        0.2891
     37 C          64.6800   85.3097   15.2691 C.3     1  UNL1        0.4366
     38 F          66.0493   85.3043   14.6568 F       1  UNL1       -0.1663
     39 F          64.8413   83.8660   15.6426 F       1  UNL1       -0.1663
     40 F          64.5187   86.7535   14.8956 F       1  UNL1       -0.1663
     41 C          63.0471   86.1162   17.1220 C.3     1  UNL1        0.1945
     42 C          63.0566   88.7048   16.8996 C.3     1  UNL1        0.1743
     43 O          62.3021   87.4151   17.0319 O.3     1  UNL1       -0.3469
@<TRIPOS>UNITY_ATOM_ATTR
3 1
charge 1
4 1
charge -1
@<TRIPOS>BOND
     1    42    43    1
     2    43    41    1
     3    36    41    1
     4    36    35    1
     5    35    25    1
     6    25    26   ar
     7    26    27   ar
     8    27    24    1
     9     1    24    1
    10     1     2    1
    11     2     3    1
    12     3     4    2
    13     3     5    1
    14     5     6    1
    15     6    10    1
    16    10    12    1
    17    12    13    1
    18    13    14   ar
    19    14    15   ar
    20    15    16   ar
    21    16    17   ar
    22    17    19    1
    23    19    20    1
    24    20    21    1
    25    20    22    1
    26    20    23    1
    27    17    18   ar
    28     6     7    1
    29     7     8    1
    30    27    28   ar
    31    28    29   ar
    32    29    30    1
    33    29    31   ar
    34    31    32    1
    35    36    37    1
    36    37    38    1
    37    37    39    1
    38    37    40    1
    39    31    25   ar
    40     7     1    1
    41    18    13   ar
    42    10    11    1
    43     8     9    1
    44    32    33    1
    45    32    34    1
@<TRIPOS>MOLECULE
*****
 43 45 0 0 0
SMALL
GASTEIGER

@<TRIPOS>ATOM
      1 C          61.5845   89.2401   10.9033 C.3     1  UNL1        0.0920
      2 C          60.6364   89.4885    9.7677 C.3     1  UNL1        0.2582
      3 S          60.3768   88.4102    8.7578 S.O     1  UNL1        0.0319
      4 O          59.4288   88.6586    7.6223 O.co2   1  UNL1       -0.6812
      5 C          61.0652   87.0834    8.8836 C.3     1  UNL1        0.2736
      6 C          62.0132   86.8350   10.0192 C.3     1  UNL1        0.1416
      7 C          62.2728   87.9133   11.0290 C.3     1  UNL1        0.1353
      8 O          63.2209   87.6648   12.1646 O.3     1  UNL1       -0.3827
      9 H          63.5761   86.7647   12.0982 H       1  UNL1        0.2104
     10 N          62.7016   85.5082   10.1450 N.3     1  UNL1       -0.2887
     11 H          63.5369   85.6622   10.7097 H       1  UNL1        0.1237
     12 C          61.9781   84.3423   10.7510 C.3     1  UNL1        0.0959
     13 C          62.6065   83.5709   11.8735 C.ar    1  UNL1       -0.0034
     14 C          62.6969   82.0755   11.7974 C.ar    1  UNL1       -0.0027
     15 C          63.3254   81.3041   12.9199 C.ar    1  UNL1        0.0028
     16 C          63.8634   82.0280   14.1185 C.ar    1  UNL1        0.0372
     17 C          63.7730   83.5233   14.1945 C.ar    1  UNL1        0.1465
     18 C          63.1445   84.2948   13.0720 C.ar    1  UNL1        0.0343
     19 O          64.3109   84.2472   15.3931 O.3     1  UNL1       -0.4045
     20 C          64.1944   85.7400   15.4823 C.3     1  UNL1        0.5753
     21 F          64.0780   87.2329   15.5715 F       1  UNL1       -0.1328
     22 F          65.5291   85.8842   14.8132 F       1  UNL1       -0.1328
     23 F          62.8597   85.5958   16.1514 F       1  UNL1       -0.1328
     24 C          61.8441   90.3184   11.9132 C.3     1  UNL1        0.0342
     25 C          65.3709   91.3461   13.4151 C.ar    1  UNL1        0.1535
     26 C          64.0022   90.7442   13.2957 C.ar    1  UNL1        0.0341
     27 C          63.2129   90.9204   12.0324 C.ar    1  UNL1       -0.0166
     28 C          63.7923   91.6985   10.8885 C.ar    1  UNL1        0.0268
     29 C          65.1610   92.3005   11.0078 C.ar    1  UNL1        0.1556
     30 F          65.7405   93.0787    9.8638 F       1  UNL1       -0.2028
     31 C          65.9503   92.1242   12.2711 C.ar    1  UNL1        0.1037
     32 N          67.3191   92.7262   12.3904 N.pl3   1  UNL1       -0.3529
     33 H          67.6994   93.2370   11.6396 H       1  UNL1        0.1425
     34 H          67.8371   92.6106   13.2195 H       1  UNL1        0.1425
     35 O          66.1602   91.1699   14.6784 O.3     1  UNL1       -0.4665
     36 C          66.1734   92.2565   15.7122 C.3     1  UNL1        0.2891
     37 C          67.3470   93.1859   15.8086 C.3     1  UNL1        0.4366
     38 F          68.5204   94.1152   15.9050 F       1  UNL1       -0.1663
     39 F          66.6768   94.1310   14.8560 F       1  UNL1       -0.1663
     40 F          68.0172   92.2407   16.7612 F       1  UNL1       -0.1663
     41 C          65.0132   92.4139   16.6498 C.3     1  UNL1        0.1945
     42 C          63.4550   90.3356   16.7048 C.3     1  UNL1        0.1743
     43 O          63.6977   91.7677   16.3302 O.3     1  UNL1       -0.3469
@<TRIPOS>UNITY_ATOM_ATTR
3 1
charge 1
4 1
charge -1
@<TRIPOS>BOND
     1    42    43    1
     2    43    41    1
     3    36    41    1
     4    36    35    1
     5    35    25    1
     6    25    26   ar
     7    26    27   ar
     8    27    24    1
     9     1    24    1
    10     1     2    1
    11     2     3    1
    12     3     4    2
    13     3     5    1
    14     5     6    1
    15     6    10    1
    16    10    12    1
    17    12    13    1
    18    13    14   ar
    19    14    15   ar
    20    15    16   ar
    21    16    17   ar
    22    17    19    1
    23    19    20    1
    24    20    21    1
    25    20    22    1
    26    20    23    1
    27    17    18   ar
    28     6     7    1
    29     7     8    1
    30    27    28   ar
    31    28    29   ar
    32    29    30    1
    33    29    31   ar
    34    31    32    1
    35    36    37    1
    36    37    38    1
    37    37    39    1
    38    37    40    1
    39    31    25   ar
    40     7     1    1
    41    18    13   ar
    42    10    11    1
    43     8     9    1
    44    32    33    1
    45    32    34    1
@<TRIPOS>MOLECULE
*****
 43 45 0 0 0
SMALL
GASTEIGER

@<TRIPOS>ATOM
      1 C          64.0947   90.9249   13.9117 C.3     1  UNL1        0.0920
      2 C          65.3725   91.6763   13.6819 C.3     1  UNL1        0.2582
      3 S          65.7172   92.1669   12.3069 S.O     1  UNL1        0.0319
      4 O          66.9949   92.9183   12.0771 O.co2   1  UNL1       -0.6812
      5 C          64.7842   91.9060   11.1617 C.3     1  UNL1        0.2736
      6 C          63.5065   91.1546   11.3915 C.3     1  UNL1        0.1416
      7 C          63.1617   90.6640   12.7665 C.3     1  UNL1        0.1353
      8 O          61.8839   89.9126   12.9962 O.3     1  UNL1       -0.3827
      9 H          61.4015   89.8315   12.1587 H       1  UNL1        0.2104
     10 N          62.5734   90.8937   10.2463 N.3     1  UNL1       -0.2887
     11 H          63.0930   90.3430    9.5628 H       1  UNL1        0.1237
     12 C          61.2767   90.1780   10.4835 C.3     1  UNL1        0.0959
     13 C          60.7876   89.1638    9.4925 C.ar    1  UNL1       -0.0034
     14 C          59.6992   89.5245    8.5254 C.ar    1  UNL1       -0.0027
     15 C          59.2101   88.5103    7.5343 C.ar    1  UNL1        0.0028
     16 C          59.8094   87.1354    7.5103 C.ar    1  UNL1        0.0372
     17 C          60.8978   86.7747    8.4774 C.ar    1  UNL1        0.1465
     18 C          61.3869   87.7890    9.4685 C.ar    1  UNL1        0.0343
     19 O          61.4972   85.3999    8.4535 O.3     1  UNL1       -0.4045
     20 C          62.3038   84.9540    7.2701 C.3     1  UNL1        0.5753
     21 F          63.1105   84.5080    6.0867 F       1  UNL1       -0.1328
     22 F          61.0542   84.4574    6.6054 F       1  UNL1       -0.1328
     23 F          63.5534   85.4505    7.9349 F       1  UNL1       -0.1328
     24 C          63.7500   90.4344   15.2866 C.3     1  UNL1        0.0342
     25 C          64.2565   86.5211   14.8626 C.ar    1  UNL1        0.1535
     26 C          64.2875   87.9934   14.5775 C.ar    1  UNL1        0.0341
     27 C          63.7189   88.9620   15.5718 C.ar    1  UNL1       -0.0166
     28 C          63.1193   88.4583   16.8511 C.ar    1  UNL1        0.0268
     29 C          63.0883   86.9860   17.1362 C.ar    1  UNL1        0.1556
     30 F          62.4887   86.4822   18.4156 F       1  UNL1       -0.2028
     31 C          63.6569   86.0174   16.1419 C.ar    1  UNL1        0.1037
     32 N          63.6259   84.5450   16.4271 N.pl3   1  UNL1       -0.3529
     33 H          63.2323   84.2144   17.2667 H       1  UNL1        0.1425
     34 H          63.9991   83.9093   15.7745 H       1  UNL1        0.1425
     35 O          64.8251   85.5525   13.8683 O.3     1  UNL1       -0.4665
     36 C          63.9389   84.5219   13.2340 C.3     1  UNL1        0.2891
     37 C          62.7329   84.9492   12.4510 C.3     1  UNL1        0.4366
     38 F          61.5270   85.3766   11.6680 F       1  UNL1       -0.1663
     39 F          61.8844   84.8063   13.6797 F       1  UNL1       -0.1663
     40 F          63.5813   85.0921   11.2224 F       1  UNL1       -0.1663
     41 C          64.2585   83.0639   13.3827 C.3     1  UNL1        0.1945
     42 C          62.2952   81.5353   14.1302 C.3     1  UNL1        0.1743
     43 O          63.5760   82.2507   14.4425 O.3     1  UNL1       -0.3469
@<TRIPOS>UNITY_ATOM_ATTR
3 1
charge 1
4 1
charge -1
@<TRIPOS>BOND
     1    42    43    1
     2    43    41    1
     3    36    41    1
     4    36    35    1
     5    35    25    1
     6    25    26   ar
     7    26    27   ar
     8    27    24    1
     9     1    24    1
    10     1     2    1
    11     2     3    1
    12     3     4    2
    13     3     5    1
    14     5     6    1
    15     6    10    1
    16    10    12    1
    17    12    13    1
    18    13    14   ar
    19    14    15   ar
    20    15    16   ar
    21    16    17   ar
    22    17    19    1
    23    19    20    1
    24    20    21    1
    25    20    22    1
    26    20    23    1
    27    17    18   ar
    28     6     7    1
    29     7     8    1
    30    27    28   ar
    31    28    29   ar
    32    29    30    1
    33    29    31   ar
    34    31    32    1
    35    36    37    1
    36    37    38    1
    37    37    39    1
    38    37    40    1
    39    31    25   ar
    40     7     1    1
    41    18    13   ar
    42    10    11    1
    43     8     9    1
    44    32    33    1
    45    32    34    1
@<TRIPOS>MOLECULE
*****
 43 45 0 0 0
SMALL
GASTEIGER

@<TRIPOS>ATOM
      1 C          63.3875   83.6517   11.7802 C.3     1  UNL1        0.0920
      2 C          63.1675   82.1742   11.9171 C.3     1  UNL1        0.2582
      3 S          62.7396   81.5985   13.2344 S.O     1  UNL1        0.0319
      4 O          62.5196   80.1211   13.3713 O.co2   1  UNL1       -0.6812
      5 C          62.5316   82.5003   14.4149 C.3     1  UNL1        0.2736
      6 C          62.7516   83.9778   14.2780 C.3     1  UNL1        0.1416
      7 C          63.1795   84.5534   12.9607 C.3     1  UNL1        0.1353
      8 O          63.3995   86.0310   12.8238 O.3     1  UNL1       -0.3827
      9 H          63.2231   86.4642   13.6736 H       1  UNL1        0.2104
     10 N          62.5436   84.8796   15.4586 N.3     1  UNL1       -0.2887
     11 H          62.1997   84.2939   16.2195 H       1  UNL1        0.1237
     12 C          63.6920   85.6730   16.0078 C.3     1  UNL1        0.0959
     13 C          63.6631   87.1716   15.9517 C.ar    1  UNL1       -0.0034
     14 C          63.0537   87.9527   17.0780 C.ar    1  UNL1       -0.0027
     15 C          63.0248   89.4513   17.0219 C.ar    1  UNL1        0.0028
     16 C          63.6054   90.1690   15.8395 C.ar    1  UNL1        0.0372
     17 C          64.2148   89.3879   14.7132 C.ar    1  UNL1        0.1465
     18 C          64.2437   87.8891   14.7693 C.ar    1  UNL1        0.0343
     19 O          64.7953   90.1054   13.5308 O.3     1  UNL1       -0.4045
     20 C          63.8879   90.7134   12.5028 C.3     1  UNL1        0.5753
     21 F          62.9804   91.3214   11.4748 F       1  UNL1       -0.1328
     22 F          64.3493   92.0827   12.9053 F       1  UNL1       -0.1328
     23 F          63.4264   89.3441   12.1003 F       1  UNL1       -0.1328
     24 C          63.8155   84.2274   10.4629 C.3     1  UNL1        0.0342
     25 C          60.7140   86.2896    9.0924 C.ar    1  UNL1        0.1535
     26 C          61.7380   85.7272   10.0332 C.ar    1  UNL1        0.0341
     27 C          62.7915   84.7898    9.5220 C.ar    1  UNL1       -0.0166
     28 C          62.8210   84.4147    8.0700 C.ar    1  UNL1        0.0268
     29 C          61.7970   84.9770    7.1292 C.ar    1  UNL1        0.1556
     30 F          61.8264   84.6019    5.6771 F       1  UNL1       -0.2028
     31 C          60.7435   85.9145    7.6404 C.ar    1  UNL1        0.1037
     32 N          59.7195   86.4768    6.6995 N.pl3   1  UNL1       -0.3529
     33 H          59.7388   86.2306    5.7464 H       1  UNL1        0.1425
     34 H          59.0280   87.0921    7.0350 H       1  UNL1        0.1425
     35 O          59.6605   87.2270    9.6036 O.3     1  UNL1       -0.4665
     36 C          59.9355   88.7001    9.6697 C.3     1  UNL1        0.2891
     37 C          60.0541   89.3820   11.0005 C.3     1  UNL1        0.4366
     38 F          60.1727   90.0638   12.3313 F       1  UNL1       -0.1663
     39 F          60.3987   90.6686   10.3107 F       1  UNL1       -0.1663
     40 F          59.7095   88.0954   11.6904 F       1  UNL1       -0.1663
     41 C          60.0920   89.4914    8.4050 C.3     1  UNL1        0.1945
     42 C          59.2671   90.0752    6.0115 C.3     1  UNL1        0.1743
     43 O          59.2346   89.1795    7.2143 O.3     1  UNL1       -0.3469
@<TRIPOS>UNITY_ATOM_ATTR
3 1
charge 1
4 1
charge -1
@<TRIPOS>BOND
     1    42    43    1
     2    43    41    1
     3    36    41    1
     4    36    35    1
     5    35    25    1
     6    25    26   ar
     7    26    27   ar
     8    27    24    1
     9     1    24    1
    10     1     2    1
    11     2     3    1
    12     3     4    2
    13     3     5    1
    14     5     6    1
    15     6    10    1
    16    10    12    1
    17    12    13    1
    18    13    14   ar
    19    14    15   ar
    20    15    16   ar
    21    16    17   ar
    22    17    19    1
    23    19    20    1
    24    20    21    1
    25    20    22    1
    26    20    23    1
    27    17    18   ar
    28     6     7    1
    29     7     8    1
    30    27    28   ar
    31    28    29   ar
    32    29    30    1
    33    29    31   ar
    34    31    32    1
    35    36    37    1
    36    37    38    1
    37    37    39    1
    38    37    40    1
    39    31    25   ar
    40     7     1    1
    41    18    13   ar
    42    10    11    1
    43     8     9    1
    44    32    33    1
    45    32    34    1
@<TRIPOS>MOLECULE
*****
 43 45 0 0 0
SMALL
GASTEIGER

@<TRIPOS>ATOM
      1 C          61.8294   89.8740   10.6767 C.3     1  UNL1        0.0920
      2 C          60.6376   90.3094   11.4769 C.3     1  UNL1        0.2582
      3 S          59.5962   89.3069   11.8772 S.O     1  UNL1        0.0319
      4 O          58.4044   89.7422   12.6772 O.co2   1  UNL1       -0.6812
      5 C          59.7465   87.8689   11.4773 C.3     1  UNL1        0.2736
      6 C          60.9382   87.4336   10.6773 C.3     1  UNL1        0.1416
      7 C          61.9797   88.4361   10.2770 C.3     1  UNL1        0.1353
      8 O          63.1715   88.0007    9.4768 O.3     1  UNL1       -0.3827
      9 H          63.1146   87.0478    9.3046 H       1  UNL1        0.2104
     10 N          61.0885   85.9956   10.2774 N.3     1  UNL1       -0.2887
     11 H          60.9484   85.9545    9.2680 H       1  UNL1        0.1237
     12 C          62.3668   85.2663   10.5673 C.3     1  UNL1        0.0959
     13 C          62.7707   84.9955   11.9863 C.ar    1  UNL1       -0.0034
     14 C          63.4231   86.0742   12.7992 C.ar    1  UNL1       -0.0027
     15 C          63.8270   85.8034   14.2182 C.ar    1  UNL1        0.0028
     16 C          63.5784   84.4540   14.8243 C.ar    1  UNL1        0.0372
     17 C          62.9260   83.3753   14.0113 C.ar    1  UNL1        0.1465
     18 C          62.5221   83.6461   12.5923 C.ar    1  UNL1        0.0343
     19 O          62.6775   82.0259   14.6173 O.3     1  UNL1       -0.4045
     20 C          62.4974   80.8281   13.7326 C.3     1  UNL1        0.5753
     21 F          62.3173   79.6303   12.8479 F       1  UNL1       -0.1328
     22 F          61.0110   80.9191   13.9120 F       1  UNL1       -0.1328
     23 F          63.9838   80.7372   13.5532 F       1  UNL1       -0.1328
     24 C          62.8709   90.8765   10.2764 C.3     1  UNL1        0.0342
     25 C          66.0817   92.6334   11.8107 C.ar    1  UNL1        0.1535
     26 C          65.0353   92.2048   10.8252 C.ar    1  UNL1        0.0341
     27 C          63.9174   91.3051   11.2620 C.ar    1  UNL1       -0.0166
     28 C          63.8458   90.8341   12.6843 C.ar    1  UNL1        0.0268
     29 C          64.8922   91.2627   13.6698 C.ar    1  UNL1        0.1556
     30 F          64.8207   90.7916   15.0922 F       1  UNL1       -0.2028
     31 C          66.0102   92.1624   13.2330 C.ar    1  UNL1        0.1037
     32 N          67.0566   92.5910   14.2186 N.pl3   1  UNL1       -0.3529
     33 H          67.0096   92.2818   15.1521 H       1  UNL1        0.1425
     34 H          67.7904   93.1815   13.9320 H       1  UNL1        0.1425
     35 O          67.1997   93.5331   11.3740 O.3     1  UNL1       -0.4665
     36 C          67.3889   93.8417    9.9183 C.3     1  UNL1        0.2891
     37 C          68.2664   92.9658    9.0739 C.3     1  UNL1        0.4366
     38 F          69.1438   92.0900    8.2294 F       1  UNL1       -0.1663
     39 F          68.5248   92.0825   10.2584 F       1  UNL1       -0.1663
     40 F          68.0080   93.8491    7.8894 F       1  UNL1       -0.1663
     41 C          66.7008   95.0261    9.3071 C.3     1  UNL1        0.1945
     42 C          66.1845   96.8559   11.0778 C.3     1  UNL1        0.1743
     43 O          65.7081   95.8135   10.1100 O.3     1  UNL1       -0.3469
@<TRIPOS>UNITY_ATOM_ATTR
3 1
charge 1
4 1
charge -1
@<TRIPOS>BOND
     1    42    43    1
     2    43    41    1
     3    36    41    1
     4    36    35    1
     5    35    25    1
     6    25    26   ar
     7    26    27   ar
     8    27    24    1
     9     1    24    1
    10     1     2    1
    11     2     3    1
    12     3     4    2
    13     3     5    1
    14     5     6    1
    15     6    10    1
    16    10    12    1
    17    12    13    1
    18    13    14   ar
    19    14    15   ar
    20    15    16   ar
    21    16    17   ar
    22    17    19    1
    23    19    20    1
    24    20    21    1
    25    20    22    1
    26    20    23    1
    27    17    18   ar
    28     6     7    1
    29     7     8    1
    30    27    28   ar
    31    28    29   ar
    32    29    30    1
    33    29    31   ar
    34    31    32    1
    35    36    37    1
    36    37    38    1
    37    37    39    1
    38    37    40    1
    39    31    25   ar
    40     7     1    1
    41    18    13   ar
    42    10    11    1
    43     8     9    1
    44    32    33    1
    45    32    34    1
@<TRIPOS>MOLECULE
*****
 43 45 0 0 0
SMALL
GASTEIGER

@<TRIPOS>ATOM
      1 C          63.1238   83.6105   11.9023 C.3     1  UNL1        0.0920
      2 C          62.8096   82.1513   12.0512 C.3     1  UNL1        0.2582
      3 S          62.4108   81.6029   13.3892 S.O     1  UNL1        0.0319
      4 O          62.0966   80.1437   13.5382 O.co2   1  UNL1       -0.6812
      5 C          62.3261   82.5136   14.5781 C.3     1  UNL1        0.2736
      6 C          62.6402   83.9727   14.4291 C.3     1  UNL1        0.1416
      7 C          63.0391   84.5212   13.0911 C.3     1  UNL1        0.1353
      8 O          63.3532   85.9804   12.9422 O.3     1  UNL1       -0.3827
      9 H          63.2507   86.4224   13.7995 H       1  UNL1        0.2104
     10 N          62.5555   84.8834   15.6180 N.3     1  UNL1       -0.2887
     11 H          62.3014   84.3021   16.4167 H       1  UNL1        0.1237
     12 C          63.7508   85.6895   16.0320 C.3     1  UNL1        0.0959
     13 C          63.7051   87.1872   15.9654 C.ar    1  UNL1       -0.0034
     14 C          63.0587   87.9678   17.0712 C.ar    1  UNL1       -0.0027
     15 C          63.0129   89.4656   17.0046 C.ar    1  UNL1        0.0028
     16 C          63.6135   90.1829   15.8321 C.ar    1  UNL1        0.0372
     17 C          64.2599   89.4024   14.7262 C.ar    1  UNL1        0.1465
     18 C          64.3057   87.9045   14.7929 C.ar    1  UNL1        0.0343
     19 O          64.8605   90.1196   13.5538 O.3     1  UNL1       -0.4045
     20 C          65.4145   91.5031   13.7244 C.3     1  UNL1        0.5753
     21 F          65.9686   92.8865   13.8952 F       1  UNL1       -0.1328
     22 F          66.4559   90.9702   14.6633 F       1  UNL1       -0.1328
     23 F          64.3732   92.0359   12.7856 F       1  UNL1       -0.1328
     24 C          63.5227   84.1590   10.5643 C.3     1  UNL1        0.0342
     25 C          60.6790   86.7478    9.5836 C.ar    1  UNL1        0.1535
     26 C          61.6684   85.9716   10.4011 C.ar    1  UNL1        0.0341
     27 C          62.5332   84.9352    9.7467 C.ar    1  UNL1       -0.0166
     28 C          62.4084   84.6751    8.2747 C.ar    1  UNL1        0.0268
     29 C          61.4190   85.4513    7.4572 C.ar    1  UNL1        0.1556
     30 F          61.2942   85.1912    5.9851 F       1  UNL1       -0.2028
     31 C          60.5542   86.4877    8.1116 C.ar    1  UNL1        0.1037
     32 N          59.5647   87.2639    7.2940 N.pl3   1  UNL1       -0.3529
     33 H          59.4829   87.0932    6.3279 H       1  UNL1        0.1425
     34 H          58.9972   87.9441    7.7235 H       1  UNL1        0.1425
     35 O          59.8142   87.7841   10.2380 O.3     1  UNL1       -0.4665
     36 C          60.4383   88.9993   10.8573 C.3     1  UNL1        0.2891
     37 C          61.7883   89.4656   10.3986 C.3     1  UNL1        0.4366
     38 F          63.1381   89.9319    9.9398 F       1  UNL1       -0.1663
     39 F          62.3747   89.0688   11.7209 F       1  UNL1       -0.1663
     40 F          61.2018   89.8624    9.0763 F       1  UNL1       -0.1663
     41 C          59.7126   89.7484   11.9354 C.3     1  UNL1        0.1945
     42 C          57.8379   88.6068   13.3256 C.3     1  UNL1        0.1743
     43 O          59.2684   89.0331   13.1768 O.3     1  UNL1       -0.3469
@<TRIPOS>UNITY_ATOM_ATTR
3 1
charge 1
4 1
charge -1
@<TRIPOS>BOND
     1    42    43    1
     2    43    41    1
     3    36    41    1
     4    36    35    1
     5    35    25    1
     6    25    26   ar
     7    26    27   ar
     8    27    24    1
     9     1    24    1
    10     1     2    1
    11     2     3    1
    12     3     4    2
    13     3     5    1
    14     5     6    1
    15     6    10    1
    16    10    12    1
    17    12    13    1
    18    13    14   ar
    19    14    15   ar
    20    15    16   ar
    21    16    17   ar
    22    17    19    1
    23    19    20    1
    24    20    21    1
    25    20    22    1
    26    20    23    1
    27    17    18   ar
    28     6     7    1
    29     7     8    1
    30    27    28   ar
    31    28    29   ar
    32    29    30    1
    33    29    31   ar
    34    31    32    1
    35    36    37    1
    36    37    38    1
    37    37    39    1
    38    37    40    1
    39    31    25   ar
    40     7     1    1
    41    18    13   ar
    42    10    11    1
    43     8     9    1
    44    32    33    1
    45    32    34    1
@<TRIPOS>MOLECULE
*****
 43 45 0 0 0
SMALL
GASTEIGER

@<TRIPOS>ATOM
      1 C          61.8217   90.0125   10.6268 C.3     1  UNL1        0.0920
      2 C          60.6337   90.4588   11.4266 C.3     1  UNL1        0.2582
      3 S          59.5778   89.4679   11.8178 S.O     1  UNL1        0.0319
      4 O          58.3899   89.9142   12.6176 O.co2   1  UNL1       -0.6812
      5 C          59.7099   88.0306   11.4093 C.3     1  UNL1        0.2736
      6 C          60.8978   87.5843   10.6096 C.3     1  UNL1        0.1416
      7 C          61.9537   88.5752   10.2184 C.3     1  UNL1        0.1353
      8 O          63.1417   88.1289    9.4186 O.3     1  UNL1       -0.3827
      9 H          63.0726   87.1779    9.2402 H       1  UNL1        0.2104
     10 N          61.0299   86.1470   10.2011 N.3     1  UNL1       -0.2887
     11 H          60.4740   86.0294    9.3540 H       1  UNL1        0.1237
     12 C          62.3845   85.5704    9.9137 C.3     1  UNL1        0.0959
     13 C          62.9719   84.5410   10.8330 C.ar    1  UNL1       -0.0034
     14 C          63.8182   83.4344   10.2769 C.ar    1  UNL1       -0.0027
     15 C          64.4056   82.4050   11.1963 C.ar    1  UNL1        0.0028
     16 C          64.1467   82.4822   12.6718 C.ar    1  UNL1        0.0372
     17 C          63.3005   83.5888   13.2279 C.ar    1  UNL1        0.1465
     18 C          62.7130   84.6182   12.3085 C.ar    1  UNL1        0.0343
     19 O          63.0416   83.6660   14.7034 O.3     1  UNL1       -0.4045
     20 C          63.4417   84.8904   15.4719 C.3     1  UNL1        0.5753
     21 F          63.8419   86.1149   16.2405 F       1  UNL1       -0.1328
     22 F          64.7936   84.8560   14.8229 F       1  UNL1       -0.1328
     23 F          62.0899   84.9248   16.1209 F       1  UNL1       -0.1328
     24 C          62.8776   91.0034   10.2356 C.3     1  UNL1        0.0342
     25 C          66.1313   92.6793   11.7703 C.ar    1  UNL1        0.1535
     26 C          65.0580   92.3017   10.7929 C.ar    1  UNL1        0.0341
     27 C          63.9509   91.3810   11.2132 C.ar    1  UNL1       -0.0166
     28 C          63.9171   90.8379   12.6109 C.ar    1  UNL1        0.0268
     29 C          64.9904   91.2154   13.5884 C.ar    1  UNL1        0.1556
     30 F          64.9566   90.6723   14.9863 F       1  UNL1       -0.2028
     31 C          66.0974   92.1362   13.1681 C.ar    1  UNL1        0.1037
     32 N          67.1707   92.5137   14.1457 N.pl3   1  UNL1       -0.3529
     33 H          67.1485   92.1573   15.0631 H       1  UNL1        0.1425
     34 H          67.8974   93.1180   13.8698 H       1  UNL1        0.1425
     35 O          67.2384   93.6000   11.3500 O.3     1  UNL1       -0.4665
     36 C          67.4583   93.8935    9.8956 C.3     1  UNL1        0.2891
     37 C          68.3156   92.9824    9.0679 C.3     1  UNL1        0.4366
     38 F          69.1729   92.0714    8.2402 F       1  UNL1       -0.1663
     39 F          67.9360   93.7461    7.8340 F       1  UNL1       -0.1663
     40 F          68.6952   92.2187   10.3018 F       1  UNL1       -0.1663
     41 C          66.8209   95.0980    9.2688 C.3     1  UNL1        0.1945
     42 C          64.9723   96.7283   10.0902 C.3     1  UNL1        0.1743
     43 O          66.3944   96.2525   10.1263 O.3     1  UNL1       -0.3469
@<TRIPOS>UNITY_ATOM_ATTR
3 1
charge 1
4 1
charge -1
@<TRIPOS>BOND
     1    42    43    1
     2    43    41    1
     3    36    41    1
     4    36    35    1
     5    35    25    1
     6    25    26   ar
     7    26    27   ar
     8    27    24    1
     9     1    24    1
    10     1     2    1
    11     2     3    1
    12     3     4    2
    13     3     5    1
    14     5     6    1
    15     6    10    1
    16    10    12    1
    17    12    13    1
    18    13    14   ar
    19    14    15   ar
    20    15    16   ar
    21    16    17   ar
    22    17    19    1
    23    19    20    1
    24    20    21    1
    25    20    22    1
    26    20    23    1
    27    17    18   ar
    28     6     7    1
    29     7     8    1
    30    27    28   ar
    31    28    29   ar
    32    29    30    1
    33    29    31   ar
    34    31    32    1
    35    36    37    1
    36    37    38    1
    37    37    39    1
    38    37    40    1
    39    31    25   ar
    40     7     1    1
    41    18    13   ar
    42    10    11    1
    43     8     9    1
    44    32    33    1
    45    32    34    1
@<TRIPOS>MOLECULE
*****
 43 45 0 0 0
SMALL
GASTEIGER

@<TRIPOS>ATOM
      1 C          64.0865   90.9196   13.9346 C.3     1  UNL1        0.0920
      2 C          65.3736   91.6504   13.6912 C.3     1  UNL1        0.2582
      3 S          65.7137   92.1312   12.3116 S.O     1  UNL1        0.0319
      4 O          67.0007   92.8621   12.0681 O.co2   1  UNL1       -0.6812
      5 C          64.7666   91.8811   11.1755 C.3     1  UNL1        0.2736
      6 C          63.4796   91.1502   11.4190 C.3     1  UNL1        0.1416
      7 C          63.1395   90.6695   12.7986 C.3     1  UNL1        0.1353
      8 O          61.8524   89.9386   13.0421 O.3     1  UNL1       -0.3827
      9 H          61.3614   89.8622   12.2090 H       1  UNL1        0.2104
     10 N          62.5326   90.9001   10.2829 N.3     1  UNL1       -0.2887
     11 H          63.0132   90.2815    9.6297 H       1  UNL1        0.1237
     12 C          61.1882   90.2898   10.5477 C.3     1  UNL1        0.0959
     13 C          60.6075   89.3045    9.5773 C.ar    1  UNL1       -0.0034
     14 C          60.6916   87.8339    9.8608 C.ar    1  UNL1       -0.0027
     15 C          60.1109   86.8486    8.8904 C.ar    1  UNL1        0.0028
     16 C          59.4461   87.3337    7.6363 C.ar    1  UNL1        0.0372
     17 C          59.3619   88.8043    7.3528 C.ar    1  UNL1        0.1465
     18 C          59.9427   89.7897    8.3233 C.ar    1  UNL1        0.0343
     19 O          58.6971   89.2895    6.0988 O.3     1  UNL1       -0.4045
     20 C          58.9838   90.6686    5.5833 C.3     1  UNL1        0.5753
     21 F          59.2705   92.0479    5.0679 F       1  UNL1       -0.1328
     22 F          57.5397   91.0344    5.7587 F       1  UNL1       -0.1328
     23 F          60.4279   90.3029    5.4080 F       1  UNL1       -0.1328
     24 C          63.7464   90.4388   15.3142 C.3     1  UNL1        0.0342
     25 C          64.2629   86.5234   14.9233 C.ar    1  UNL1        0.1535
     26 C          64.2950   87.9937   14.6282 C.ar    1  UNL1        0.0341
     27 C          63.7142   88.9684   15.6093 C.ar    1  UNL1       -0.0166
     28 C          63.1013   88.4728   16.8855 C.ar    1  UNL1        0.0268
     29 C          63.0691   87.0025   17.1806 C.ar    1  UNL1        0.1556
     30 F          62.4562   86.5069   18.4568 F       1  UNL1       -0.2028
     31 C          63.6499   86.0278   16.1995 C.ar    1  UNL1        0.1037
     32 N          63.6177   84.5574   16.4946 N.pl3   1  UNL1       -0.3529
     33 H          63.2154   84.2321   17.3322 H       1  UNL1        0.1425
     34 H          63.9989   83.9176   15.8507 H       1  UNL1        0.1425
     35 O          64.8436   85.5486   13.9422 O.3     1  UNL1       -0.4665
     36 C          63.9651   84.5146   13.3028 C.3     1  UNL1        0.2891
     37 C          62.7823   84.9382   12.4833 C.3     1  UNL1        0.4366
     38 F          61.5996   85.3618   11.6638 F       1  UNL1       -0.1663
     39 F          63.6381   84.9446   11.2514 F       1  UNL1       -0.1663
     40 F          61.9265   84.9318   13.7151 F       1  UNL1       -0.1663
     41 C          64.2693   83.0568   13.4829 C.3     1  UNL1        0.1945
     42 C          62.1592   81.7476   14.2469 C.3     1  UNL1        0.1743
     43 O          63.5405   82.2618   14.5255 O.3     1  UNL1       -0.3469
@<TRIPOS>UNITY_ATOM_ATTR
3 1
charge 1
4 1
charge -1
@<TRIPOS>BOND
     1    42    43    1
     2    43    41    1
     3    36    41    1
     4    36    35    1
     5    35    25    1
     6    25    26   ar
     7    26    27   ar
     8    27    24    1
     9     1    24    1
    10     1     2    1
    11     2     3    1
    12     3     4    2
    13     3     5    1
    14     5     6    1
    15     6    10    1
    16    10    12    1
    17    12    13    1
    18    13    14   ar
    19    14    15   ar
    20    15    16   ar
    21    16    17   ar
    22    17    19    1
    23    19    20    1
    24    20    21    1
    25    20    22    1
    26    20    23    1
    27    17    18   ar
    28     6     7    1
    29     7     8    1
    30    27    28   ar
    31    28    29   ar
    32    29    30    1
    33    29    31   ar
    34    31    32    1
    35    36    37    1
    36    37    38    1
    37    37    39    1
    38    37    40    1
    39    31    25   ar
    40     7     1    1
    41    18    13   ar
    42    10    11    1
    43     8     9    1
    44    32    33    1
    45    32    34    1
