@<TRIPOS>MOLECULE
*****
 49 55 0 0 0
SMALL
GASTEIGER

@<TRIPOS>ATOM
      1 C          60.4014   90.2974    6.0704 C.ar    1  UNL1        0.0481
      2 C          59.2267   89.3665    6.1290 C.ar    1  UNL1        0.0176
      3 C          58.8897   88.6639    7.4108 C.ar    1  UNL1        0.0382
      4 C          59.7273   88.8925    8.6340 C.ar    1  UNL1        0.1388
      5 C          60.9020   89.8235    8.5754 C.ar    1  UNL1        0.0382
      6 C          61.2390   90.5259    7.2936 C.ar    1  UNL1        0.0176
      7 N          61.4123   92.4048    2.2251 N.pl3   1  UNL1       -0.3041
      8 C          62.4044   91.4703    2.8514 C.3     1  UNL1        0.1122
      9 C          62.0674   90.7677    4.1332 C.3     1  UNL1        0.1122
     10 N          60.7384   90.9999    4.7887 N.pl3   1  UNL1       -0.3041
     11 C          59.7462   91.9345    4.1623 C.3     1  UNL1        0.1122
     12 C          60.0832   92.6370    2.8806 C.3     1  UNL1        0.1122
     13 C          62.4233   94.5123   -1.6202 C.ar    1  UNL1        0.0699
     14 C          63.4863   94.2881   -0.5860 C.ar    1  UNL1        0.0190
     15 C          63.1493   93.5856    0.6958 C.ar    1  UNL1        0.0160
     16 C          61.7493   93.1074    0.9433 C.ar    1  UNL1        0.0480
     17 C          60.6863   93.3316   -0.0909 C.ar    1  UNL1        0.0160
     18 C          61.0233   94.0341   -1.3727 C.ar    1  UNL1        0.0190
     19 N          63.7420   95.7359   -5.0596 N.ar    1  UNL1       -0.2024
     20 N          62.8155   96.8560   -4.6893 N.ar    1  UNL1       -0.1442
     21 C          62.2088   96.5339   -3.3558 C.ar    1  UNL1        0.2073
     22 N          62.7603   95.2148   -2.9020 N.ar    1  UNL1       -0.2398
     23 C          63.7078   94.7216   -3.9550 C.ar    1  UNL1        0.3522
     24 O          64.4848   93.4393   -3.9112 O.2     1  UNL1       -0.2444
     25 C          64.5592   95.6458   -6.3143 C.3     1  UNL1        0.1099
     26 C          65.2937   96.8523   -6.8191 C.3     1  UNL1        0.0265
     27 C          63.3871   93.6633   -7.5166 C.3     1  UNL1        0.0021
     28 C          64.6418   94.3494   -7.0641 C.3     1  UNL1        0.0245
     29 O          59.3903   88.1900    9.9157 O.3     1  UNL1       -0.4727
     30 C          60.4773   87.5546   10.7309 C.3     1  UNL1        0.2374
     31 C          61.3587   88.4041   11.5979 C.3     1  UNL1        0.1909
     32 C          61.1246   89.8429   11.9516 C.3     1  UNL1        0.1783
     33 O          62.2500   90.2919   12.8357 O.3     1  UNL1       -0.3266
     34 C          63.1797   89.1306   13.0285 C.3     1  UNL1        0.2315
     35 O          62.6288   87.9639   12.2635 O.3     1  UNL1       -0.3254
     36 C          63.9590   90.0969   13.8705 C.ar    1  UNL1        0.0410
     37 C          65.1421   90.8131   13.2898 C.ar    1  UNL1        0.0022
     38 C          65.9215   91.7794   14.1318 C.ar    1  UNL1        0.0113
     39 C          65.5177   92.0294   15.5546 C.ar    1  UNL1        0.0585
     40 CL         66.2970   92.9956   16.3967 Cl      1  UNL1       -0.0822
     41 C          64.3346   91.3132   16.1354 C.ar    1  UNL1        0.0226
     42 C          63.5552   90.3469   15.2934 C.ar    1  UNL1        0.0591
     43 CL         62.3721   89.6307   15.8741 Cl      1  UNL1       -0.0824
     44 C          64.2723   88.1714   13.3973 C.3     1  UNL1        0.1897
     45 N          63.9479   86.9240   14.1645 N.ar    1  UNL1       -0.2246
     46 C          63.6969   85.5672   13.5763 C.ar    1  UNL1        0.1974
     47 N          63.4113   84.6191   14.7029 N.ar    1  UNL1       -0.2007
     48 C          63.4858   85.3898   15.9875 C.ar    1  UNL1        0.2210
     49 N          63.8174   86.8144   15.6548 N.ar    1  UNL1       -0.1450
@<TRIPOS>BOND
     1    27    28    1
     2    28    25    1
     3    25    26    1
     4    25    19    1
     5    19    20   ar
     6    20    21   ar
     7    21    22   ar
     8    22    13    1
     9    13    14   ar
    10    14    15   ar
    11    15    16   ar
    12    16     7    1
    13     7     8    1
    14     8     9    1
    15     9    10    1
    16    10     1    1
    17     1     2   ar
    18     2     3   ar
    19     3     4   ar
    20     4    29    1
    21    29    30    1
    22    31    30    1
    23    31    32    1
    24    32    33    1
    25    33    34    1
    26    34    44    1
    27    44    45    1
    28    45    46   ar
    29    46    47   ar
    30    47    48   ar
    31    48    49   ar
    32    34    36    1
    33    36    37   ar
    34    37    38   ar
    35    38    39   ar
    36    39    40    1
    37    39    41   ar
    38    41    42   ar
    39    42    43    1
    40    34    35    1
    41     4     5   ar
    42     5     6   ar
    43    10    11    1
    44    11    12    1
    45    16    17   ar
    46    17    18   ar
    47    22    23   ar
    48    23    24    2
    49    23    19   ar
    50    18    13   ar
    51    12     7    1
    52     6     1   ar
    53    35    31    1
    54    49    45   ar
    55    42    36   ar
@<TRIPOS>MOLECULE
*****
 49 55 0 0 0
SMALL
GASTEIGER

@<TRIPOS>ATOM
      1 C          59.4565   93.4680    1.8248 C.ar    1  UNL1        0.0481
      2 C          59.9862   94.8713    1.8174 C.ar    1  UNL1        0.0176
      3 C          59.7597   95.7522    0.6245 C.ar    1  UNL1        0.0382
      4 C          59.0035   95.2296   -0.5609 C.ar    1  UNL1        0.1388
      5 C          58.4739   93.8262   -0.5534 C.ar    1  UNL1        0.0382
      6 C          58.7004   92.9454    0.6394 C.ar    1  UNL1        0.0176
      7 N          60.1361   90.8255    5.4033 N.pl3   1  UNL1       -0.3041
      8 C          58.7532   91.3072    5.0785 C.3     1  UNL1        0.1122
      9 C          58.5267   92.1881    3.8856 C.3     1  UNL1        0.1122
     10 N          59.6830   92.5872    3.0176 N.pl3   1  UNL1       -0.3041
     11 C          61.0660   92.1054    3.3424 C.3     1  UNL1        0.1122
     12 C          61.2925   91.2246    4.5353 C.3     1  UNL1        0.1122
     13 C          60.8157   88.1830    8.9817 C.ar    1  UNL1        0.0699
     14 C          60.0252   87.6741    7.8129 C.ar    1  UNL1        0.0190
     15 C          59.7987   88.5549    6.6202 C.ar    1  UNL1        0.0160
     16 C          60.3627   89.9447    6.5962 C.ar    1  UNL1        0.0480
     17 C          61.1532   90.4536    7.7649 C.ar    1  UNL1        0.0160
     18 C          61.3797   89.5727    8.9577 C.ar    1  UNL1        0.0190
     19 N          61.8661   85.5268   11.6098 N.ar    1  UNL1       -0.2024
     20 N          60.9157   86.3668   12.4106 N.ar    1  UNL1       -0.1442
     21 C          60.4066   87.4640   11.5236 C.ar    1  UNL1        0.2073
     22 N          61.0423   87.3022   10.1746 N.ar    1  UNL1       -0.2398
     23 C          61.9443   86.1049   10.2279 C.ar    1  UNL1        0.3522
     24 O          62.7781   85.5781    9.0977 O.2     1  UNL1       -0.2444
     25 C          62.6079   84.3204   12.1041 C.3     1  UNL1        0.1099
     26 C          63.1159   84.2783   13.5149 C.3     1  UNL1        0.0265
     27 C          64.2226   82.8692   10.6769 C.3     1  UNL1        0.0021
     28 C          62.8418   83.1561   11.1878 C.3     1  UNL1        0.0245
     29 O          58.7770   96.1104   -1.7537 O.3     1  UNL1       -0.4727
     30 C          58.8216   95.5280   -3.1353 C.3     1  UNL1        0.2374
     31 C          60.1400   95.3255   -3.8216 C.3     1  UNL1        0.1909
     32 C          60.3379   94.8094   -5.2161 C.3     1  UNL1        0.1783
     33 O          61.8120   94.7684   -5.4904 O.3     1  UNL1       -0.3266
     34 C          62.5252   95.2591   -4.2653 C.3     1  UNL1        0.2315
     35 O          61.4918   95.6034   -3.2341 O.3     1  UNL1       -0.3254
     36 C          63.7617   95.0064   -5.0760 C.ar    1  UNL1        0.0410
     37 C          64.4404   96.1422   -5.7826 C.ar    1  UNL1        0.0022
     38 C          65.6770   95.8895   -6.5933 C.ar    1  UNL1        0.0113
     39 C          66.2347   94.5010   -6.6974 C.ar    1  UNL1        0.0585
     40 CL         67.4712   94.2482   -7.5081 Cl      1  UNL1       -0.0822
     41 C          65.5560   93.3651   -5.9908 C.ar    1  UNL1        0.0226
     42 C          64.3195   93.6178   -5.1801 C.ar    1  UNL1        0.0591
     43 CL         63.6407   92.4820   -4.4735 Cl      1  UNL1       -0.0824
     44 C          63.4969   95.6970   -3.2099 C.3     1  UNL1        0.1897
     45 N          63.3932   95.1444   -1.8192 N.ar    1  UNL1       -0.2246
     46 C          63.7210   95.8774   -0.5524 C.ar    1  UNL1        0.1974
     47 N          63.4739   94.9477    0.5984 N.ar    1  UNL1       -0.2007
     48 C          62.9933   93.6399    0.0428 C.ar    1  UNL1        0.2210
     49 N          62.9434   93.7615   -1.4514 N.ar    1  UNL1       -0.1450
@<TRIPOS>BOND
     1    27    28    1
     2    28    25    1
     3    25    26    1
     4    25    19    1
     5    19    20   ar
     6    20    21   ar
     7    21    22   ar
     8    22    13    1
     9    13    14   ar
    10    14    15   ar
    11    15    16   ar
    12    16     7    1
    13     7     8    1
    14     8     9    1
    15     9    10    1
    16    10     1    1
    17     1     2   ar
    18     2     3   ar
    19     3     4   ar
    20     4    29    1
    21    29    30    1
    22    31    30    1
    23    31    32    1
    24    32    33    1
    25    33    34    1
    26    34    44    1
    27    44    45    1
    28    45    46   ar
    29    46    47   ar
    30    47    48   ar
    31    48    49   ar
    32    34    36    1
    33    36    37   ar
    34    37    38   ar
    35    38    39   ar
    36    39    40    1
    37    39    41   ar
    38    41    42   ar
    39    42    43    1
    40    34    35    1
    41     4     5   ar
    42     5     6   ar
    43    10    11    1
    44    11    12    1
    45    16    17   ar
    46    17    18   ar
    47    22    23   ar
    48    23    24    2
    49    23    19   ar
    50    18    13   ar
    51    12     7    1
    52     6     1   ar
    53    35    31    1
    54    49    45   ar
    55    42    36   ar
@<TRIPOS>MOLECULE
*****
 49 55 0 0 0
SMALL
GASTEIGER

@<TRIPOS>ATOM
      1 C          60.1470   89.9817    7.2251 C.ar    1  UNL1        0.0481
      2 C          60.8557   90.6108    8.3878 C.ar    1  UNL1        0.0176
      3 C          61.0140   89.8497    9.6707 C.ar    1  UNL1        0.0382
      4 C          60.4635   88.4596    9.7908 C.ar    1  UNL1        0.1388
      5 C          59.7548   87.8304    8.6280 C.ar    1  UNL1        0.0382
      6 C          59.5966   88.5915    7.3452 C.ar    1  UNL1        0.0176
      7 N          59.6723   92.2649    3.3765 N.pl3   1  UNL1       -0.3041
      8 C          61.0332   91.8153    3.8188 C.3     1  UNL1        0.1122
      9 C          61.1915   91.0542    5.1017 C.3     1  UNL1        0.1122
     10 N          59.9888   90.7427    5.9422 N.pl3   1  UNL1       -0.3041
     11 C          58.6278   91.1924    5.4999 C.3     1  UNL1        0.1122
     12 C          58.4696   91.9534    4.2170 C.3     1  UNL1        0.1122
     13 C          59.1974   94.5482   -0.4720 C.ar    1  UNL1        0.0699
     14 C          59.9702   95.1477    0.6652 C.ar    1  UNL1        0.0190
     15 C          60.1285   94.3866    1.9480 C.ar    1  UNL1        0.0160
     16 C          59.5140   93.0260    2.0936 C.ar    1  UNL1        0.0480
     17 C          58.7412   92.4265    0.9563 C.ar    1  UNL1        0.0160
     18 C          58.5830   93.1876   -0.3265 C.ar    1  UNL1        0.0190
     19 N          58.1380   96.1406   -3.8495 N.ar    1  UNL1       -0.2024
     20 N          59.4533   96.8204   -3.6085 N.ar    1  UNL1       -0.1442
     21 C          60.0102   96.3065   -2.3140 C.ar    1  UNL1        0.2073
     22 N          59.0392   95.3093   -1.7549 N.ar    1  UNL1       -0.2398
     23 C          57.8821   95.2067   -2.7039 C.ar    1  UNL1        0.3522
     24 O          56.6801   94.3251   -2.5368 O.2     1  UNL1       -0.2444
     25 C          57.2369   96.3568   -5.0290 C.3     1  UNL1        0.1099
     26 C          57.7394   96.0866   -6.4163 C.3     1  UNL1        0.0265
     27 C          54.8664   96.8560   -5.9680 C.3     1  UNL1        0.0021
     28 C          55.8332   96.8431   -4.8213 C.3     1  UNL1        0.0245
     29 O          60.6218   87.6985   11.0736 O.3     1  UNL1       -0.4727
     30 C          61.9757   87.2064   11.4916 C.3     1  UNL1        0.2374
     31 C          62.8811   88.0930   12.2942 C.3     1  UNL1        0.1909
     32 C          63.8769   87.6390   13.3200 C.3     1  UNL1        0.1783
     33 O          64.5610   88.8546   13.8718 O.3     1  UNL1       -0.3266
     34 C          63.9879   90.0599   13.1869 C.3     1  UNL1        0.2315
     35 O          62.9497   89.5891   12.2120 O.3     1  UNL1       -0.3254
     36 C          64.9483   90.8156   14.0567 C.ar    1  UNL1        0.0410
     37 C          66.3331   91.1128   13.5628 C.ar    1  UNL1        0.0022
     38 C          67.2935   91.8685   14.4327 C.ar    1  UNL1        0.0113
     39 C          66.8692   92.3269   15.7963 C.ar    1  UNL1        0.0585
     40 CL         67.8295   93.0826   16.6661 Cl      1  UNL1       -0.0822
     41 C          65.4843   92.0297   16.2903 C.ar    1  UNL1        0.0226
     42 C          64.5239   91.2740   15.4205 C.ar    1  UNL1        0.0591
     43 CL         63.1391   90.9768   15.9144 Cl      1  UNL1       -0.0824
     44 C          63.6156   91.4231   12.6839 C.3     1  UNL1        0.1897
     45 N          64.5994   92.2203   11.8797 N.ar    1  UNL1       -0.2246
     46 C          64.9554   91.9888   10.4412 C.ar    1  UNL1        0.1974
     47 N          65.9758   93.0143   10.0453 N.ar    1  UNL1       -0.2007
     48 C          66.2507   93.8797   11.2393 C.ar    1  UNL1        0.2210
     49 N          65.4000   93.3889   12.3731 N.ar    1  UNL1       -0.1450
@<TRIPOS>BOND
     1    27    28    1
     2    28    25    1
     3    25    26    1
     4    25    19    1
     5    19    20   ar
     6    20    21   ar
     7    21    22   ar
     8    22    13    1
     9    13    14   ar
    10    14    15   ar
    11    15    16   ar
    12    16     7    1
    13     7     8    1
    14     8     9    1
    15     9    10    1
    16    10     1    1
    17     1     2   ar
    18     2     3   ar
    19     3     4   ar
    20     4    29    1
    21    29    30    1
    22    31    30    1
    23    31    32    1
    24    32    33    1
    25    33    34    1
    26    34    44    1
    27    44    45    1
    28    45    46   ar
    29    46    47   ar
    30    47    48   ar
    31    48    49   ar
    32    34    36    1
    33    36    37   ar
    34    37    38   ar
    35    38    39   ar
    36    39    40    1
    37    39    41   ar
    38    41    42   ar
    39    42    43    1
    40    34    35    1
    41     4     5   ar
    42     5     6   ar
    43    10    11    1
    44    11    12    1
    45    16    17   ar
    46    17    18   ar
    47    22    23   ar
    48    23    24    2
    49    23    19   ar
    50    18    13   ar
    51    12     7    1
    52     6     1   ar
    53    35    31    1
    54    49    45   ar
    55    42    36   ar
@<TRIPOS>MOLECULE
*****
 49 55 0 0 0
SMALL
GASTEIGER

@<TRIPOS>ATOM
      1 C          60.3910   90.4436    6.7461 C.ar    1  UNL1        0.0481
      2 C          61.4233   90.9545    7.7068 C.ar    1  UNL1        0.0176
      3 C          61.5583   90.3309    9.0644 C.ar    1  UNL1        0.0382
      4 C          60.6609   89.1964    9.4611 C.ar    1  UNL1        0.1388
      5 C          59.6285   88.6854    8.5003 C.ar    1  UNL1        0.0382
      6 C          59.4935   89.3090    7.1428 C.ar    1  UNL1        0.0176
      7 N          59.9860   92.3144    2.6735 N.pl3   1  UNL1       -0.3041
      8 C          61.3282   91.8490    3.1549 C.3     1  UNL1        0.1122
      9 C          61.4632   91.2253    4.5124 C.3     1  UNL1        0.1122
     10 N          60.2560   91.0672    5.3886 N.pl3   1  UNL1       -0.3041
     11 C          58.9137   91.5327    4.9071 C.3     1  UNL1        0.1122
     12 C          58.7788   92.1563    3.5496 C.3     1  UNL1        0.1122
     13 C          59.5809   94.1854   -1.3990 C.ar    1  UNL1        0.0699
     14 C          59.3794   95.0180   -0.1678 C.ar    1  UNL1        0.0190
     15 C          59.5144   94.3944    1.1897 C.ar    1  UNL1        0.0160
     16 C          59.8510   92.9381    1.3159 C.ar    1  UNL1        0.0480
     17 C          60.0526   92.1054    0.0847 C.ar    1  UNL1        0.0160
     18 C          59.9175   92.7291   -1.2728 C.ar    1  UNL1        0.0190
     19 N          58.7571   95.2292   -5.0456 N.ar    1  UNL1       -0.2024
     20 N          59.7193   96.3082   -4.6456 N.ar    1  UNL1       -0.1442
     21 C          60.1450   96.0485   -3.2309 C.ar    1  UNL1        0.2073
     22 N          59.4459   94.8090   -2.7566 N.ar    1  UNL1       -0.2398
     23 C          58.5882   94.3027   -3.8781 C.ar    1  UNL1        0.3522
     24 O          57.7148   93.0838   -3.8391 O.2     1  UNL1       -0.2444
     25 C          58.0823   95.0995   -6.3790 C.3     1  UNL1        0.1099
     26 C          57.0513   96.1050   -6.7987 C.3     1  UNL1        0.0265
     27 C          57.6662   92.6802   -7.2295 C.3     1  UNL1        0.0021
     28 C          58.4385   93.9644   -7.2926 C.3     1  UNL1        0.0245
     29 O          60.7959   88.5728   10.8186 O.3     1  UNL1       -0.4727
     30 C          62.0968   87.9512   11.2324 C.3     1  UNL1        0.2374
     31 C          62.1657   86.4820   11.5275 C.3     1  UNL1        0.1909
     32 C          61.4805   85.3944   10.7544 C.3     1  UNL1        0.1783
     33 O          61.8233   84.0828   11.3965 O.3     1  UNL1       -0.3266
     34 C          62.7204   84.3599   12.5664 C.3     1  UNL1        0.2315
     35 O          62.9320   85.8427   12.6473 O.3     1  UNL1       -0.3254
     36 C          62.6952   82.8699   12.7375 C.ar    1  UNL1        0.0410
     37 C          61.9438   82.2592   13.8831 C.ar    1  UNL1        0.0022
     38 C          61.9186   80.7691   14.0542 C.ar    1  UNL1        0.0113
     39 C          62.6447   79.8899   13.0798 C.ar    1  UNL1        0.0585
     40 CL         62.6195   78.3999   13.2508 Cl      1  UNL1       -0.0822
     41 C          63.3961   80.5006   11.9341 C.ar    1  UNL1        0.0226
     42 C          63.4213   81.9907   11.7629 C.ar    1  UNL1        0.0591
     43 CL         64.1726   82.6014   10.6173 Cl      1  UNL1       -0.0824
     44 C          63.6122   84.3254   13.7720 C.3     1  UNL1        0.1897
     45 N          63.2501   85.1140   14.9955 N.ar    1  UNL1       -0.2246
     46 C          62.2146   84.7369   16.0131 C.ar    1  UNL1        0.1974
     47 N          62.1845   85.8080   17.0627 N.ar    1  UNL1       -0.2007
     48 C          63.2014   86.8472   16.6938 C.ar    1  UNL1        0.2210
     49 N          63.8600   86.4183   15.4162 N.ar    1  UNL1       -0.1450
@<TRIPOS>BOND
     1    27    28    1
     2    28    25    1
     3    25    26    1
     4    25    19    1
     5    19    20   ar
     6    20    21   ar
     7    21    22   ar
     8    22    13    1
     9    13    14   ar
    10    14    15   ar
    11    15    16   ar
    12    16     7    1
    13     7     8    1
    14     8     9    1
    15     9    10    1
    16    10     1    1
    17     1     2   ar
    18     2     3   ar
    19     3     4   ar
    20     4    29    1
    21    29    30    1
    22    31    30    1
    23    31    32    1
    24    32    33    1
    25    33    34    1
    26    34    44    1
    27    44    45    1
    28    45    46   ar
    29    46    47   ar
    30    47    48   ar
    31    48    49   ar
    32    34    36    1
    33    36    37   ar
    34    37    38   ar
    35    38    39   ar
    36    39    40    1
    37    39    41   ar
    38    41    42   ar
    39    42    43    1
    40    34    35    1
    41     4     5   ar
    42     5     6   ar
    43    10    11    1
    44    11    12    1
    45    16    17   ar
    46    17    18   ar
    47    22    23   ar
    48    23    24    2
    49    23    19   ar
    50    18    13   ar
    51    12     7    1
    52     6     1   ar
    53    35    31    1
    54    49    45   ar
    55    42    36   ar
@<TRIPOS>MOLECULE
*****
 49 55 0 0 0
SMALL
GASTEIGER

@<TRIPOS>ATOM
      1 C          60.1049   90.0183    7.2812 C.ar    1  UNL1        0.0481
      2 C          60.9521   90.5934    8.3773 C.ar    1  UNL1        0.0176
      3 C          61.0874   89.8648    9.6815 C.ar    1  UNL1        0.0382
      4 C          60.3755   88.5609    9.8895 C.ar    1  UNL1        0.1388
      5 C          59.5283   87.9858    8.7933 C.ar    1  UNL1        0.0382
      6 C          59.3930   88.7145    7.4892 C.ar    1  UNL1        0.0176
      7 N          59.6990   92.2044    3.3690 N.pl3   1  UNL1       -0.3041
      8 C          61.0487   91.7442    3.8344 C.3     1  UNL1        0.1122
      9 C          61.1840   91.0154    5.1385 C.3     1  UNL1        0.1122
     10 N          59.9697   90.7470    5.9772 N.pl3   1  UNL1       -0.3041
     11 C          58.6200   91.2073    5.5117 C.3     1  UNL1        0.1122
     12 C          58.4847   91.9360    4.2076 C.3     1  UNL1        0.1122
     13 C          59.2930   94.3905   -0.5434 C.ar    1  UNL1        0.0699
     14 C          58.7785   92.9877   -0.4112 C.ar    1  UNL1        0.0190
     15 C          58.9139   92.2591    0.8929 C.ar    1  UNL1        0.0160
     16 C          59.5637   92.9332    2.0648 C.ar    1  UNL1        0.0480
     17 C          60.0782   94.3359    1.9326 C.ar    1  UNL1        0.0160
     18 C          59.9428   95.0646    0.6285 C.ar    1  UNL1        0.0190
     19 N          59.4440   95.7719   -4.1675 N.ar    1  UNL1       -0.2024
     20 N          58.4547   96.7094   -3.5410 N.ar    1  UNL1       -0.1442
     21 C          58.2778   96.3060   -2.1072 C.ar    1  UNL1        0.2073
     22 N          59.1577   95.1192   -1.8475 N.ar    1  UNL1       -0.2398
     23 C          59.8785   94.7892   -3.1209 C.ar    1  UNL1        0.3522
     24 O          60.8611   93.6724   -3.3138 O.2     1  UNL1       -0.2444
     25 C          59.9160   95.8104   -5.5908 C.3     1  UNL1        0.1099
     26 C          58.9228   95.9424   -6.7071 C.3     1  UNL1        0.0265
     27 C          61.9022   94.5840   -6.7313 C.3     1  UNL1        0.0021
     28 C          61.3813   95.7170   -5.8979 C.3     1  UNL1        0.0245
     29 O          60.5108   87.8322   11.1936 O.3     1  UNL1       -0.4727
     30 C          61.8174   87.1962   11.5652 C.3     1  UNL1        0.2374
     31 C          61.9936   85.7123   11.4334 C.3     1  UNL1        0.1909
     32 C          61.6676   84.8899   10.2221 C.3     1  UNL1        0.1783
     33 O          61.9992   83.4598   10.5298 O.3     1  UNL1       -0.3266
     34 C          62.5301   83.3983   11.9314 C.3     1  UNL1        0.2315
     35 O          62.5266   84.7905   12.4898 O.3     1  UNL1       -0.3254
     36 C          62.6498   81.9291   11.6538 C.ar    1  UNL1        0.0410
     37 C          63.2136   81.4563   10.3467 C.ar    1  UNL1        0.0022
     38 C          63.3334   79.9871   10.0690 C.ar    1  UNL1        0.0113
     39 C          62.8892   78.9907   11.0984 C.ar    1  UNL1        0.0585
     40 CL         63.0089   77.5215   10.8208 Cl      1  UNL1       -0.0822
     41 C          62.3253   79.4634   12.4056 C.ar    1  UNL1        0.0226
     42 C          62.2056   80.9327   12.6832 C.ar    1  UNL1        0.0591
     43 CL         61.6417   81.4054   13.9903 Cl      1  UNL1       -0.0824
     44 C          63.0860   83.0297   13.2749 C.3     1  UNL1        0.1897
     45 N          63.5375   84.1034   14.2200 N.ar    1  UNL1       -0.2246
     46 C          64.8978   84.7346   14.2525 C.ar    1  UNL1        0.1974
     47 N          64.9089   85.7557   15.3512 N.ar    1  UNL1       -0.2007
     48 C          63.5555   85.7556   15.9978 C.ar    1  UNL1        0.2210
     49 N          62.7079   84.7344   15.2987 N.ar    1  UNL1       -0.1450
@<TRIPOS>BOND
     1    27    28    1
     2    28    25    1
     3    25    26    1
     4    25    19    1
     5    19    20   ar
     6    20    21   ar
     7    21    22   ar
     8    22    13    1
     9    13    14   ar
    10    14    15   ar
    11    15    16   ar
    12    16     7    1
    13     7     8    1
    14     8     9    1
    15     9    10    1
    16    10     1    1
    17     1     2   ar
    18     2     3   ar
    19     3     4   ar
    20     4    29    1
    21    29    30    1
    22    31    30    1
    23    31    32    1
    24    32    33    1
    25    33    34    1
    26    34    44    1
    27    44    45    1
    28    45    46   ar
    29    46    47   ar
    30    47    48   ar
    31    48    49   ar
    32    34    36    1
    33    36    37   ar
    34    37    38   ar
    35    38    39   ar
    36    39    40    1
    37    39    41   ar
    38    41    42   ar
    39    42    43    1
    40    34    35    1
    41     4     5   ar
    42     5     6   ar
    43    10    11    1
    44    11    12    1
    45    16    17   ar
    46    17    18   ar
    47    22    23   ar
    48    23    24    2
    49    23    19   ar
    50    18    13   ar
    51    12     7    1
    52     6     1   ar
    53    35    31    1
    54    49    45   ar
    55    42    36   ar
@<TRIPOS>MOLECULE
*****
 49 55 0 0 0
SMALL
GASTEIGER

@<TRIPOS>ATOM
      1 C          60.4738   90.3524    6.7322 C.ar    1  UNL1        0.0481
      2 C          59.4857   89.2902    7.1132 C.ar    1  UNL1        0.0176
      3 C          59.5191   88.6935    8.4891 C.ar    1  UNL1        0.0382
      4 C          60.5407   89.1591    9.4839 C.ar    1  UNL1        0.1388
      5 C          61.5289   90.2213    9.1027 C.ar    1  UNL1        0.0382
      6 C          61.4955   90.8179    7.7269 C.ar    1  UNL1        0.0176
      7 N          60.3735   92.1421    2.6046 N.pl3   1  UNL1       -0.3041
      8 C          59.1411   92.1589    3.4595 C.3     1  UNL1        0.1122
      9 C          59.1745   91.5622    4.8354 C.3     1  UNL1        0.1122
     10 N          60.4404   90.9489    5.3563 N.pl3   1  UNL1       -0.3041
     11 C          61.6728   90.9323    4.5014 C.3     1  UNL1        0.1122
     12 C          61.6394   91.5289    3.1256 C.3     1  UNL1        0.1122
     13 C          60.2731   93.9320   -1.5229 C.ar    1  UNL1        0.0699
     14 C          59.1527   94.1992   -0.5621 C.ar    1  UNL1        0.0190
     15 C          59.1861   93.6026    0.8137 C.ar    1  UNL1        0.0160
     16 C          60.3400   92.7388    1.2287 C.ar    1  UNL1        0.0480
     17 C          61.4605   92.4715    0.2680 C.ar    1  UNL1        0.0160
     18 C          61.4270   93.0681   -1.1078 C.ar    1  UNL1        0.0190
     19 N          60.9072   95.6482   -4.9461 N.ar    1  UNL1       -0.2024
     20 N          59.4692   95.2451   -5.0859 N.ar    1  UNL1       -0.1442
     21 C          59.0566   94.5531   -3.8206 C.ar    1  UNL1        0.2073
     22 N          60.2397   94.5286   -2.8988 N.ar    1  UNL1       -0.2398
     23 C          61.3834   95.2053   -3.5944 C.ar    1  UNL1        0.3522
     24 O          62.7614   95.4044   -3.0362 O.2     1  UNL1       -0.2444
     25 C          61.7255   96.3678   -5.9770 C.3     1  UNL1        0.1099
     26 C          63.1152   96.8250   -5.6461 C.3     1  UNL1        0.0265
     27 C          59.6695   96.7457   -7.5197 C.3     1  UNL1        0.0021
     28 C          61.1539   96.6301   -7.3388 C.3     1  UNL1        0.0245
     29 O          60.5742   88.5625   10.8597 O.3     1  UNL1       -0.4727
     30 C          60.5062   89.4528   12.0650 C.3     1  UNL1        0.2374
     31 C          61.7634   90.0367   12.6380 C.3     1  UNL1        0.1909
     32 C          62.6486   91.0486   11.9727 C.3     1  UNL1        0.1783
     33 O          63.7885   91.3486   12.9005 O.3     1  UNL1       -0.3266
     34 C          63.6078   90.5221   14.1392 C.3     1  UNL1        0.2315
     35 O          62.3562   89.7113   13.9769 O.3     1  UNL1       -0.3254
     36 C          64.8770   91.1892   14.5795 C.ar    1  UNL1        0.0410
     37 C          66.0825   91.1710   13.6871 C.ar    1  UNL1        0.0022
     38 C          67.3518   91.8382   14.1275 C.ar    1  UNL1        0.0113
     39 C          67.4156   92.5235   15.4602 C.ar    1  UNL1        0.0585
     40 CL         68.6848   93.1906   15.9006 Cl      1  UNL1       -0.0822
     41 C          66.2101   92.5417   16.3527 C.ar    1  UNL1        0.0226
     42 C          64.9407   91.8746   15.9123 C.ar    1  UNL1        0.0591
     43 CL         63.7352   91.8928   16.8047 Cl      1  UNL1       -0.0824
     44 C          63.6924   89.8351   15.4699 C.3     1  UNL1        0.1897
     45 N          63.8102   88.3412   15.5366 N.ar    1  UNL1       -0.2246
     46 C          63.1055   87.4438   16.5103 C.ar    1  UNL1        0.1974
     47 N          63.5131   86.0305   16.2168 N.ar    1  UNL1       -0.2007
     48 C          64.4697   86.0543   15.0616 C.ar    1  UNL1        0.2210
     49 N          64.6533   87.4824   14.6413 N.ar    1  UNL1       -0.1450
@<TRIPOS>BOND
     1    27    28    1
     2    28    25    1
     3    25    26    1
     4    25    19    1
     5    19    20   ar
     6    20    21   ar
     7    21    22   ar
     8    22    13    1
     9    13    14   ar
    10    14    15   ar
    11    15    16   ar
    12    16     7    1
    13     7     8    1
    14     8     9    1
    15     9    10    1
    16    10     1    1
    17     1     2   ar
    18     2     3   ar
    19     3     4   ar
    20     4    29    1
    21    29    30    1
    22    31    30    1
    23    31    32    1
    24    32    33    1
    25    33    34    1
    26    34    44    1
    27    44    45    1
    28    45    46   ar
    29    46    47   ar
    30    47    48   ar
    31    48    49   ar
    32    34    36    1
    33    36    37   ar
    34    37    38   ar
    35    38    39   ar
    36    39    40    1
    37    39    41   ar
    38    41    42   ar
    39    42    43    1
    40    34    35    1
    41     4     5   ar
    42     5     6   ar
    43    10    11    1
    44    11    12    1
    45    16    17   ar
    46    17    18   ar
    47    22    23   ar
    48    23    24    2
    49    23    19   ar
    50    18    13   ar
    51    12     7    1
    52     6     1   ar
    53    35    31    1
    54    49    45   ar
    55    42    36   ar
@<TRIPOS>MOLECULE
*****
 49 55 0 0 0
SMALL
GASTEIGER

@<TRIPOS>ATOM
      1 C          59.6702   93.5229    2.3043 C.ar    1  UNL1        0.0481
      2 C          60.1317   94.9454    2.4210 C.ar    1  UNL1        0.0176
      3 C          59.8951   95.9055    1.2931 C.ar    1  UNL1        0.0382
      4 C          59.1972   95.4432    0.0485 C.ar    1  UNL1        0.1388
      5 C          58.7357   94.0207   -0.0682 C.ar    1  UNL1        0.0382
      6 C          58.9722   93.0606    1.0597 C.ar    1  UNL1        0.0176
      7 N          60.3798   90.6426    5.6881 N.pl3   1  UNL1       -0.3041
      8 C          61.5060   91.0115    4.7686 C.3     1  UNL1        0.1122
      9 C          61.2695   91.9717    3.6407 C.3     1  UNL1        0.1122
     10 N          59.9068   92.5628    3.4322 N.pl3   1  UNL1       -0.3041
     11 C          58.7805   92.1939    4.3518 C.3     1  UNL1        0.1122
     12 C          59.0171   91.2338    5.4797 C.3     1  UNL1        0.1122
     13 C          61.0892   87.7622    9.0719 C.ar    1  UNL1        0.0699
     14 C          60.3828   87.3023    7.8312 C.ar    1  UNL1        0.0190
     15 C          60.1463   88.2625    6.7033 C.ar    1  UNL1        0.0160
     16 C          60.6163   89.6825    6.8161 C.ar    1  UNL1        0.0480
     17 C          61.3227   90.1423    8.0568 C.ar    1  UNL1        0.0160
     18 C          61.5592   89.1822    9.1847 C.ar    1  UNL1        0.0190
     19 N          62.1342   84.9139   11.4928 N.ar    1  UNL1       -0.2024
     20 N          61.2450   85.7355   12.3786 N.ar    1  UNL1       -0.1442
     21 C          60.7454   86.9024   11.5795 C.ar    1  UNL1        0.2073
     22 N          61.3257   86.8021   10.1999 N.ar    1  UNL1       -0.2398
     23 C          62.1840   85.5731   10.1464 C.ar    1  UNL1        0.3522
     24 O          62.9566   85.0884    8.9555 O.2     1  UNL1       -0.2444
     25 C          62.8481   83.6542   11.8848 C.3     1  UNL1        0.1099
     26 C          63.9104   83.0853   10.9915 C.3     1  UNL1        0.0265
     27 C          61.9543   81.5666   13.1467 C.3     1  UNL1        0.0021
     28 C          62.4998   82.9636   13.1699 C.3     1  UNL1        0.0245
     29 O          58.9606   96.4033   -1.0795 O.3     1  UNL1       -0.4727
     30 C          57.5863   96.5525   -1.6615 C.3     1  UNL1        0.2374
     31 C          57.0311   95.4850   -2.5572 C.3     1  UNL1        0.1909
     32 C          55.6460   94.9127   -2.4931 C.3     1  UNL1        0.1783
     33 O          55.5223   93.8763   -3.5704 O.3     1  UNL1       -0.3266
     34 C          56.8310   93.8081   -4.3004 C.3     1  UNL1        0.2315
     35 O          57.7635   94.8023   -3.6741 O.3     1  UNL1       -0.3254
     36 C          56.1421   92.7536   -5.1148 C.ar    1  UNL1        0.0410
     37 C          55.8632   92.9922   -6.5691 C.ar    1  UNL1        0.0022
     38 C          55.1742   91.9376   -7.3836 C.ar    1  UNL1        0.0113
     39 C          54.7641   90.6446   -6.7437 C.ar    1  UNL1        0.0585
     40 CL         54.0751   89.5900   -7.5580 Cl      1  UNL1       -0.0822
     41 C          55.0429   90.4059   -5.2892 C.ar    1  UNL1        0.0226
     42 C          55.7319   91.4604   -4.4747 C.ar    1  UNL1        0.0591
     43 CL         56.0107   91.2218   -3.0203 Cl      1  UNL1       -0.0824
     44 C          57.9956   93.5194   -5.2006 C.3     1  UNL1        0.1897
     45 N          58.6705   94.6390   -5.9362 N.ar    1  UNL1       -0.2246
     46 C          60.1441   94.7691   -6.1840 C.ar    1  UNL1        0.1974
     47 N          60.3746   96.0355   -6.9541 N.ar    1  UNL1       -0.2007
     48 C          59.0434   96.6880   -7.1823 C.ar    1  UNL1        0.2210
     49 N          57.9902   95.8249   -6.5532 N.ar    1  UNL1       -0.1450
@<TRIPOS>BOND
     1    27    28    1
     2    28    25    1
     3    25    26    1
     4    25    19    1
     5    19    20   ar
     6    20    21   ar
     7    21    22   ar
     8    22    13    1
     9    13    14   ar
    10    14    15   ar
    11    15    16   ar
    12    16     7    1
    13     7     8    1
    14     8     9    1
    15     9    10    1
    16    10     1    1
    17     1     2   ar
    18     2     3   ar
    19     3     4   ar
    20     4    29    1
    21    29    30    1
    22    31    30    1
    23    31    32    1
    24    32    33    1
    25    33    34    1
    26    34    44    1
    27    44    45    1
    28    45    46   ar
    29    46    47   ar
    30    47    48   ar
    31    48    49   ar
    32    34    36    1
    33    36    37   ar
    34    37    38   ar
    35    38    39   ar
    36    39    40    1
    37    39    41   ar
    38    41    42   ar
    39    42    43    1
    40    34    35    1
    41     4     5   ar
    42     5     6   ar
    43    10    11    1
    44    11    12    1
    45    16    17   ar
    46    17    18   ar
    47    22    23   ar
    48    23    24    2
    49    23    19   ar
    50    18    13   ar
    51    12     7    1
    52     6     1   ar
    53    35    31    1
    54    49    45   ar
    55    42    36   ar
@<TRIPOS>MOLECULE
*****
 49 55 0 0 0
SMALL
GASTEIGER

@<TRIPOS>ATOM
      1 C          59.5104   93.4167    2.2086 C.ar    1  UNL1        0.0481
      2 C          60.0485   94.8164    2.2429 C.ar    1  UNL1        0.0176
      3 C          59.8018   95.7433    1.0895 C.ar    1  UNL1        0.0382
      4 C          59.0170   95.2702   -0.0981 C.ar    1  UNL1        0.1388
      5 C          58.4790   93.8704   -0.1324 C.ar    1  UNL1        0.0382
      6 C          58.7257   92.9437    1.0210 C.ar    1  UNL1        0.0176
      7 N          60.2507   90.6365    5.6687 N.pl3   1  UNL1       -0.3041
      8 C          58.8649   91.1411    5.3953 C.3     1  UNL1        0.1122
      9 C          58.6181   92.0679    4.2419 C.3     1  UNL1        0.1122
     10 N          59.7572   92.4900    3.3620 N.pl3   1  UNL1       -0.3041
     11 C          61.1431   91.9853    3.6354 C.3     1  UNL1        0.1122
     12 C          61.3898   91.0586    4.7888 C.3     1  UNL1        0.1122
     13 C          60.9911   87.8564    9.1289 C.ar    1  UNL1        0.0699
     14 C          61.4722   89.2757    9.1910 C.ar    1  UNL1        0.0190
     15 C          61.2254   90.2024    8.0376 C.ar    1  UNL1        0.0160
     16 C          60.4975   89.7097    6.8221 C.ar    1  UNL1        0.0480
     17 C          60.0163   88.2904    6.7600 C.ar    1  UNL1        0.0160
     18 C          60.2631   87.3637    7.9134 C.ar    1  UNL1        0.0190
     19 N          62.0325   85.0629   11.6143 N.ar    1  UNL1       -0.2024
     20 N          61.2026   85.9442   12.5001 N.ar    1  UNL1       -0.1442
     21 C          60.7115   87.0979   11.6768 C.ar    1  UNL1        0.2073
     22 N          61.2379   86.9296   10.2823 N.ar    1  UNL1       -0.2398
     23 C          62.0543   85.6719   10.2437 C.ar    1  UNL1        0.3522
     24 O          62.7674   85.1200    9.0449 O.2     1  UNL1       -0.2444
     25 C          62.7200   83.7951   12.0268 C.3     1  UNL1        0.1099
     26 C          63.6907   83.1311   11.0958 C.3     1  UNL1        0.0265
     27 C          63.5456   82.5574   14.1567 C.3     1  UNL1        0.0021
     28 C          62.4367   83.1912   13.3703 C.3     1  UNL1        0.0245
     29 O          58.7703   96.1969   -1.2515 O.3     1  UNL1       -0.4727
     30 C          58.8490   95.6814   -2.6579 C.3     1  UNL1        0.2374
     31 C          60.1693   95.6401   -3.3688 C.3     1  UNL1        0.1909
     32 C          61.5142   95.4868   -2.7225 C.3     1  UNL1        0.1783
     33 O          62.5525   95.4968   -3.8050 O.3     1  UNL1       -0.3266
     34 C          61.8493   95.6564   -5.1203 C.3     1  UNL1        0.2315
     35 O          60.3764   95.7450   -4.8507 O.3     1  UNL1       -0.3254
     36 C          63.2358   95.5986   -5.6898 C.ar    1  UNL1        0.0410
     37 C          63.9082   96.8560   -6.1554 C.ar    1  UNL1        0.0022
     38 C          65.2948   96.7983   -6.7249 C.ar    1  UNL1        0.0113
     39 C          66.0088   95.4833   -6.8286 C.ar    1  UNL1        0.0585
     40 CL         67.3953   95.4256   -7.3981 Cl      1  UNL1       -0.0822
     41 C          65.3364   94.2259   -6.3630 C.ar    1  UNL1        0.0226
     42 C          63.9498   94.2836   -5.7935 C.ar    1  UNL1        0.0591
     43 CL         63.2774   93.0262   -5.3278 Cl      1  UNL1       -0.0824
     44 C          61.4359   95.8039   -6.5547 C.3     1  UNL1        0.1897
     45 N          60.0001   95.6134   -6.9448 N.ar    1  UNL1       -0.2246
     46 C          59.3092   94.2980   -7.1498 C.ar    1  UNL1        0.1974
     47 N          57.8853   94.5765   -7.5302 N.ar    1  UNL1       -0.2007
     48 C          57.6961   96.0643   -7.5603 C.ar    1  UNL1        0.2210
     49 N          59.0032   96.7051   -7.1985 N.ar    1  UNL1       -0.1450
@<TRIPOS>BOND
     1    27    28    1
     2    28    25    1
     3    25    26    1
     4    25    19    1
     5    19    20   ar
     6    20    21   ar
     7    21    22   ar
     8    22    13    1
     9    13    14   ar
    10    14    15   ar
    11    15    16   ar
    12    16     7    1
    13     7     8    1
    14     8     9    1
    15     9    10    1
    16    10     1    1
    17     1     2   ar
    18     2     3   ar
    19     3     4   ar
    20     4    29    1
    21    29    30    1
    22    31    30    1
    23    31    32    1
    24    32    33    1
    25    33    34    1
    26    34    44    1
    27    44    45    1
    28    45    46   ar
    29    46    47   ar
    30    47    48   ar
    31    48    49   ar
    32    34    36    1
    33    36    37   ar
    34    37    38   ar
    35    38    39   ar
    36    39    40    1
    37    39    41   ar
    38    41    42   ar
    39    42    43    1
    40    34    35    1
    41     4     5   ar
    42     5     6   ar
    43    10    11    1
    44    11    12    1
    45    16    17   ar
    46    17    18   ar
    47    22    23   ar
    48    23    24    2
    49    23    19   ar
    50    18    13   ar
    51    12     7    1
    52     6     1   ar
    53    35    31    1
    54    49    45   ar
    55    42    36   ar
