@<TRIPOS>MOLECULE
*****
 35 38 0 0 0
SMALL
GASTEIGER

@<TRIPOS>ATOM
      1 C          63.4127   90.7382   11.9756 C.ar    1  UNL1        0.0541
      2 C          62.2876   90.3555   12.8908 C.ar    1  UNL1        0.0076
      3 C          61.0812   89.6526   12.3427 C.ar    1  UNL1        0.0371
      4 C          60.9999   89.3323   10.8796 C.ar    1  UNL1        0.1391
      5 C          62.1251   89.7150    9.9644 C.ar    1  UNL1        0.0371
      6 C          63.3315   90.4180   10.5125 C.ar    1  UNL1        0.0076
      7 N          65.1351   91.0925   13.8882 N.am    1  UNL1       -0.2368
      8 C          64.6192   91.4413   12.5236 C.2     1  UNL1        0.2541
      9 O          65.3098   92.4930   11.7069 O.2     1  UNL1       -0.2695
     10 C          66.3416   91.7956   14.4362 C.3     1  UNL1        0.0819
     11 C          67.6681   91.6536   13.7507 C.3     1  UNL1        0.0203
     12 C          68.8745   92.3566   14.2987 C.3     1  UNL1        0.0017
     13 C          68.7543   93.2016   15.5322 C.3     1  UNL1        0.0001
     14 C          67.4278   93.3436   16.2178 C.3     1  UNL1        0.0017
     15 C          66.2214   92.6406   15.6697 C.3     1  UNL1        0.0203
     16 C          63.7597   87.8889   15.5942 C.ar    1  UNL1        0.0652
     17 C          63.0039   88.9559   16.3292 C.ar    1  UNL1        0.1085
     18 N          63.4272   90.2858   15.7796 N.ar    1  UNL1       -0.2221
     19 C          64.4445   90.0408   14.7049 C.ar    1  UNL1        0.1691
     20 S          64.6500   88.5594   14.5903 S.2     1  UNL1       -0.0500
     21 O          64.7483   85.4958   15.3802 O.co2   1  UNL1       -0.5440
     22 C          63.6453   86.4108   15.8229 C.2     1  UNL1        0.0805
     23 O          62.4277   85.8478   16.4942 O.co2   1  UNL1       -0.5440
     24 O          59.7934   88.6293   10.3316 O.3     1  UNL1       -0.4706
     25 C          59.9560   87.5606    9.2917 C.3     1  UNL1        0.2320
     26 C          61.0528   86.5458    9.4242 C.ar    1  UNL1        0.0211
     27 C          61.8465   86.1377    8.2186 C.ar    1  UNL1       -0.0007
     28 C          62.9432   85.1230    8.3511 C.ar    1  UNL1       -0.0003
     29 C          63.2461   84.5164    9.6891 C.ar    1  UNL1        0.0038
     30 C          62.4523   84.9245   10.8947 C.ar    1  UNL1        0.0712
     31 C          61.3556   85.9392   10.7622 C.ar    1  UNL1        0.0032
     32 C          62.7552   84.3178   12.2327 C.3     1  UNL1        0.4186
     33 F          63.0581   83.7112   13.5707 F       1  UNL1       -0.1659
     34 F          63.1272   85.6711   12.7620 F       1  UNL1       -0.1659
     35 F          62.3831   82.9645   11.7033 F       1  UNL1       -0.1659
@<TRIPOS>UNITY_ATOM_ATTR
21 1
charge -1
@<TRIPOS>BOND
     1    21    22   ar
     2    22    23   ar
     3    22    16    1
     4    16    17   ar
     5    17    18   ar
     6    18    19   ar
     7    19     7    1
     8     7     8   am
     9     8     9    2
    10     8     1    1
    11     1     2   ar
    12     2     3   ar
    13     3     4   ar
    14     4    24    1
    15    24    25    1
    16    25    26    1
    17    26    27   ar
    18    27    28   ar
    19    28    29   ar
    20    29    30   ar
    21    30    32    1
    22    32    33    1
    23    32    34    1
    24    32    35    1
    25    30    31   ar
    26     4     5   ar
    27     5     6   ar
    28     7    10    1
    29    10    11    1
    30    11    12    1
    31    12    13    1
    32    13    14    1
    33    14    15    1
    34    19    20   ar
    35    20    16   ar
    36     6     1   ar
    37    15    10    1
    38    31    26   ar
@<TRIPOS>MOLECULE
*****
 35 38 0 0 0
SMALL
GASTEIGER

@<TRIPOS>ATOM
      1 C          63.6355   91.1296   11.9583 C.ar    1  UNL1        0.0541
      2 C          63.4624   91.0490   10.4706 C.ar    1  UNL1        0.0076
      3 C          62.2248   90.4295    9.8921 C.ar    1  UNL1        0.0371
      4 C          61.1605   89.8906   10.8013 C.ar    1  UNL1        0.1391
      5 C          61.3336   89.9712   12.2891 C.ar    1  UNL1        0.0371
      6 C          62.5712   90.5907   12.8676 C.ar    1  UNL1        0.0076
      7 N          65.3501   91.3401   13.8989 N.am    1  UNL1       -0.2368
      8 C          64.8731   91.7491   12.5369 C.2     1  UNL1        0.2541
      9 O          65.6336   92.7776   11.7534 O.2     1  UNL1       -0.2695
     10 C          66.5877   91.9596   14.4775 C.3     1  UNL1        0.0819
     11 C          67.9112   91.7654   13.7989 C.3     1  UNL1        0.0203
     12 C          69.1487   92.3849   14.3775 C.3     1  UNL1        0.0017
     13 C          69.0627   93.1985   15.6347 C.3     1  UNL1        0.0001
     14 C          67.7392   93.3927   16.3133 C.3     1  UNL1        0.0017
     15 C          66.5017   92.7732   15.7347 C.3     1  UNL1        0.0203
     16 C          63.7844   88.1830   15.5258 C.ar    1  UNL1        0.0652
     17 C          63.0544   89.2747   16.2504 C.ar    1  UNL1        0.1085
     18 N          63.5521   90.5903   15.7292 N.ar    1  UNL1       -0.2221
     19 C          64.5897   90.3116   14.6824 C.ar    1  UNL1        0.1691
     20 S          64.7332   88.8238   14.5567 S.2     1  UNL1       -0.0500
     21 O          62.5421   86.2121   16.6757 O.co2   1  UNL1       -0.5440
     22 C          63.5983   86.7091   15.7337 C.2     1  UNL1        0.0805
     23 O          64.4683   85.7324   14.9996 O.co2   1  UNL1       -0.5440
     24 O          59.9229   89.2711   10.2227 O.3     1  UNL1       -0.4706
     25 C          59.6723   87.8015   10.3879 C.3     1  UNL1        0.2320
     26 C          60.7331   86.8121   10.0059 C.ar    1  UNL1        0.0211
     27 C          61.6940   86.3058   11.0405 C.ar    1  UNL1       -0.0007
     28 C          62.7547   85.3165   10.6584 C.ar    1  UNL1       -0.0003
     29 C          62.8546   84.8334    9.2418 C.ar    1  UNL1        0.0038
     30 C          61.8937   85.3397    8.2073 C.ar    1  UNL1        0.0712
     31 C          60.8329   86.3290    8.5893 C.ar    1  UNL1        0.0032
     32 C          61.9935   84.8567    6.7907 C.3     1  UNL1        0.4186
     33 F          62.0934   84.3736    5.3741 F       1  UNL1       -0.1659
     34 F          60.5016   84.9377    6.6579 F       1  UNL1       -0.1659
     35 F          63.4854   84.7757    6.9235 F       1  UNL1       -0.1659
@<TRIPOS>UNITY_ATOM_ATTR
21 1
charge -1
@<TRIPOS>BOND
     1    21    22   ar
     2    22    23   ar
     3    22    16    1
     4    16    17   ar
     5    17    18   ar
     6    18    19   ar
     7    19     7    1
     8     7     8   am
     9     8     9    2
    10     8     1    1
    11     1     2   ar
    12     2     3   ar
    13     3     4   ar
    14     4    24    1
    15    24    25    1
    16    25    26    1
    17    26    27   ar
    18    27    28   ar
    19    28    29   ar
    20    29    30   ar
    21    30    32    1
    22    32    33    1
    23    32    34    1
    24    32    35    1
    25    30    31   ar
    26     4     5   ar
    27     5     6   ar
    28     7    10    1
    29    10    11    1
    30    11    12    1
    31    12    13    1
    32    13    14    1
    33    14    15    1
    34    19    20   ar
    35    20    16   ar
    36     6     1   ar
    37    15    10    1
    38    31    26   ar
@<TRIPOS>MOLECULE
*****
 35 38 0 0 0
SMALL
GASTEIGER

@<TRIPOS>ATOM
      1 C          63.8038   87.4559   13.4224 C.ar    1  UNL1        0.0541
      2 C          63.3262   88.1277   12.1692 C.ar    1  UNL1        0.0076
      3 C          63.4431   89.6162   12.0250 C.ar    1  UNL1        0.0371
      4 C          64.0375   90.4328   13.1340 C.ar    1  UNL1        0.1391
      5 C          64.5150   89.7610   14.3872 C.ar    1  UNL1        0.0371
      6 C          64.3982   88.2725   14.5314 C.ar    1  UNL1        0.0076
      7 N          62.7346   85.2020   12.6965 N.am    1  UNL1       -0.2368
      8 C          63.6869   85.9674   13.5667 C.2     1  UNL1        0.2541
      9 O          64.5225   85.2443   14.5811 O.2     1  UNL1       -0.2695
     10 C          62.6178   83.7135   12.8408 C.3     1  UNL1        0.0819
     11 C          62.0662   83.1235   14.1047 C.3     1  UNL1        0.0203
     12 C          61.9493   81.6350   14.2489 C.3     1  UNL1        0.0017
     13 C          62.3841   80.7366   13.1292 C.3     1  UNL1        0.0001
     14 C          62.9358   81.3266   11.8653 C.3     1  UNL1        0.0017
     15 C          63.0526   82.8151   11.7211 C.3     1  UNL1        0.0203
     16 C          60.9199   86.6254    9.5746 C.ar    1  UNL1        0.0652
     17 C          60.3068   87.4501   10.6673 C.ar    1  UNL1        0.1085
     18 N          60.9120   87.0172   11.9698 N.ar    1  UNL1       -0.2221
     19 C          61.8991   85.9251   11.6821 C.ar    1  UNL1        0.1691
     20 S          61.9040   85.6829   10.2018 S.2     1  UNL1       -0.0500
     21 O          59.8360   87.9031    7.5891 O.co2   1  UNL1       -0.5440
     22 C          60.6043   86.7256    8.1116 C.2     1  UNL1        0.0805
     23 O          61.0571   85.6483    7.1712 O.co2   1  UNL1       -0.5440
     24 O          64.1543   91.9213   12.9897 O.3     1  UNL1       -0.4706
     25 C          65.4860   92.5894   13.1634 C.3     1  UNL1        0.2320
     26 C          66.1081   93.3311   12.0176 C.ar    1  UNL1        0.0211
     27 C          65.8851   94.8071   11.8701 C.ar    1  UNL1       -0.0007
     28 C          66.5073   95.5487   10.7243 C.ar    1  UNL1       -0.0003
     29 C          67.3525   94.8144    9.7261 C.ar    1  UNL1        0.0038
     30 C          67.5755   93.3385    9.8736 C.ar    1  UNL1        0.0712
     31 C          66.9533   92.5968   11.0194 C.ar    1  UNL1        0.0032
     32 C          68.4206   92.6042    8.8754 C.3     1  UNL1        0.4186
     33 F          69.2658   91.8698    7.8771 F       1  UNL1       -0.1659
     34 F          68.7042   91.5425    9.8964 F       1  UNL1       -0.1659
     35 F          68.1370   93.6658    7.8543 F       1  UNL1       -0.1659
@<TRIPOS>UNITY_ATOM_ATTR
21 1
charge -1
@<TRIPOS>BOND
     1    21    22   ar
     2    22    23   ar
     3    22    16    1
     4    16    17   ar
     5    17    18   ar
     6    18    19   ar
     7    19     7    1
     8     7     8   am
     9     8     9    2
    10     8     1    1
    11     1     2   ar
    12     2     3   ar
    13     3     4   ar
    14     4    24    1
    15    24    25    1
    16    25    26    1
    17    26    27   ar
    18    27    28   ar
    19    28    29   ar
    20    29    30   ar
    21    30    32    1
    22    32    33    1
    23    32    34    1
    24    32    35    1
    25    30    31   ar
    26     4     5   ar
    27     5     6   ar
    28     7    10    1
    29    10    11    1
    30    11    12    1
    31    12    13    1
    32    13    14    1
    33    14    15    1
    34    19    20   ar
    35    20    16   ar
    36     6     1   ar
    37    15    10    1
    38    31    26   ar
@<TRIPOS>MOLECULE
*****
 35 38 0 0 0
SMALL
GASTEIGER

@<TRIPOS>ATOM
      1 C          64.3707   91.0142   12.1350 C.ar    1  UNL1        0.0541
      2 C          64.9072   91.0926   13.5336 C.ar    1  UNL1        0.0076
      3 C          64.6778   89.9595   14.4893 C.ar    1  UNL1        0.0371
      4 C          63.9121   88.7480   14.0465 C.ar    1  UNL1        0.1391
      5 C          63.3757   88.6697   12.6479 C.ar    1  UNL1        0.0371
      6 C          63.6050   89.8028   11.6922 C.ar    1  UNL1        0.0076
      7 N          65.8260   93.0018   11.3092 N.am    1  UNL1       -0.2368
      8 C          64.6000   92.1474   11.1792 C.2     1  UNL1        0.2541
      9 O          63.6034   92.4260   10.0934 O.2     1  UNL1       -0.2695
     10 C          66.0553   94.1350   10.3534 C.3     1  UNL1        0.0819
     11 C          66.9976   93.9634    9.1991 C.3     1  UNL1        0.0203
     12 C          67.2268   95.0965    8.2433 C.3     1  UNL1        0.0017
     13 C          66.5138   96.4012    8.4420 C.3     1  UNL1        0.0001
     14 C          65.5715   96.5727    9.5963 C.3     1  UNL1        0.0017
     15 C          65.3422   95.4396   10.5520 C.3     1  UNL1        0.0203
     16 C          68.0029   92.7801   14.5151 C.ar    1  UNL1        0.0652
     17 C          68.7100   91.8089   13.6169 C.ar    1  UNL1        0.1085
     18 N          67.9805   91.7737   12.3066 N.ar    1  UNL1       -0.2221
     19 C          66.8227   92.7232   12.3951 C.ar    1  UNL1        0.1691
     20 S          66.8365   93.3452   13.7600 S.2     1  UNL1       -0.0500
     21 O          68.7208   94.5443   16.2820 O.co2   1  UNL1       -0.5440
     22 C          68.3936   93.1256   15.9215 C.2     1  UNL1        0.0805
     23 O          68.4571   92.0522   16.9674 O.co2   1  UNL1       -0.5440
     24 O          63.6828   87.6149   15.0023 O.3     1  UNL1       -0.4706
     25 C          64.4836   86.3529   14.8754 C.3     1  UNL1        0.2320
     26 C          63.8107   85.0752   14.4697 C.ar    1  UNL1        0.0211
     27 C          62.8123   84.4301   15.3845 C.ar    1  UNL1       -0.0007
     28 C          62.1394   83.1524   14.9787 C.ar    1  UNL1       -0.0003
     29 C          62.4649   82.5198   13.6582 C.ar    1  UNL1        0.0038
     30 C          63.4633   83.1649   12.7434 C.ar    1  UNL1        0.0712
     31 C          64.1362   84.4426   13.1491 C.ar    1  UNL1        0.0032
     32 C          63.7889   82.5323   11.4228 C.3     1  UNL1        0.4186
     33 F          64.1144   81.8997   10.1023 F       1  UNL1       -0.1659
     34 F          64.9719   83.4431   11.2782 F       1  UNL1       -0.1659
     35 F          62.6058   81.6215   11.5675 F       1  UNL1       -0.1659
@<TRIPOS>UNITY_ATOM_ATTR
21 1
charge -1
@<TRIPOS>BOND
     1    21    22   ar
     2    22    23   ar
     3    22    16    1
     4    16    17   ar
     5    17    18   ar
     6    18    19   ar
     7    19     7    1
     8     7     8   am
     9     8     9    2
    10     8     1    1
    11     1     2   ar
    12     2     3   ar
    13     3     4   ar
    14     4    24    1
    15    24    25    1
    16    25    26    1
    17    26    27   ar
    18    27    28   ar
    19    28    29   ar
    20    29    30   ar
    21    30    32    1
    22    32    33    1
    23    32    34    1
    24    32    35    1
    25    30    31   ar
    26     4     5   ar
    27     5     6   ar
    28     7    10    1
    29    10    11    1
    30    11    12    1
    31    12    13    1
    32    13    14    1
    33    14    15    1
    34    19    20   ar
    35    20    16   ar
    36     6     1   ar
    37    15    10    1
    38    31    26   ar
@<TRIPOS>MOLECULE
*****
 35 38 0 0 0
SMALL
GASTEIGER

@<TRIPOS>ATOM
      1 C          64.7788   90.6131   14.3448 C.ar    1  UNL1        0.0541
      2 C          64.1502   91.0434   15.6369 C.ar    1  UNL1        0.0076
      3 C          63.3786   90.0558   16.4611 C.ar    1  UNL1        0.0371
      4 C          63.2357   88.6378   15.9931 C.ar    1  UNL1        0.1391
      5 C          63.8644   88.2075   14.7010 C.ar    1  UNL1        0.0371
      6 C          64.6359   89.1951   13.8769 C.ar    1  UNL1        0.0076
      7 N          65.1040   91.9245   12.1257 N.am    1  UNL1       -0.2368
      8 C          65.5504   91.6007   13.5206 C.2     1  UNL1        0.2541
      9 O          66.7684   92.2646   14.0914 O.2     1  UNL1       -0.2695
     10 C          65.8756   92.9121   11.3015 C.3     1  UNL1        0.0819
     11 C          65.6180   94.3817   11.4562 C.3     1  UNL1        0.0203
     12 C          66.3896   95.3692   10.6320 C.3     1  UNL1        0.0017
     13 C          67.4188   94.8872    9.6531 C.3     1  UNL1        0.0001
     14 C          67.6764   93.4177    9.4983 C.3     1  UNL1        0.0017
     15 C          66.9048   92.4302   10.3225 C.3     1  UNL1        0.0203
     16 C          61.6337   90.3913   11.3062 C.ar    1  UNL1        0.0652
     17 C          62.3896   90.0870   10.0469 C.ar    1  UNL1        0.1085
     18 N          63.7816   90.6243   10.2006 N.ar    1  UNL1       -0.2221
     19 C          63.8860   91.2607   11.5549 C.ar    1  UNL1        0.1691
     20 S          62.5585   91.1167   12.2382 S.2     1  UNL1       -0.0500
     21 O          59.1347   91.0799   11.4812 O.co2   1  UNL1       -0.5440
     22 C          60.2039   90.0331   11.5847 C.2     1  UNL1        0.0805
     23 O          59.8435   88.6281   11.9666 O.co2   1  UNL1       -0.5440
     24 O          62.4641   87.6502   16.8173 O.3     1  UNL1       -0.4706
     25 C          63.0461   86.2986   17.1075 C.3     1  UNL1        0.2320
     26 C          63.5190   85.4280   15.9812 C.ar    1  UNL1        0.0211
     27 C          64.9007   85.6056   15.4251 C.ar    1  UNL1       -0.0007
     28 C          65.3735   84.7351   14.2988 C.ar    1  UNL1       -0.0003
     29 C          64.4646   83.6869   13.7286 C.ar    1  UNL1        0.0038
     30 C          63.0829   83.5093   14.2846 C.ar    1  UNL1        0.0712
     31 C          62.6101   84.3798   15.4109 C.ar    1  UNL1        0.0032
     32 C          62.1740   82.4611   13.7144 C.3     1  UNL1        0.4186
     33 F          61.2651   81.4129   13.1441 F       1  UNL1       -0.1659
     34 F          61.9954   81.8719   15.0822 F       1  UNL1       -0.1659
     35 F          62.3526   83.0504   12.3466 F       1  UNL1       -0.1659
@<TRIPOS>UNITY_ATOM_ATTR
21 1
charge -1
@<TRIPOS>BOND
     1    21    22   ar
     2    22    23   ar
     3    22    16    1
     4    16    17   ar
     5    17    18   ar
     6    18    19   ar
     7    19     7    1
     8     7     8   am
     9     8     9    2
    10     8     1    1
    11     1     2   ar
    12     2     3   ar
    13     3     4   ar
    14     4    24    1
    15    24    25    1
    16    25    26    1
    17    26    27   ar
    18    27    28   ar
    19    28    29   ar
    20    29    30   ar
    21    30    32    1
    22    32    33    1
    23    32    34    1
    24    32    35    1
    25    30    31   ar
    26     4     5   ar
    27     5     6   ar
    28     7    10    1
    29    10    11    1
    30    11    12    1
    31    12    13    1
    32    13    14    1
    33    14    15    1
    34    19    20   ar
    35    20    16   ar
    36     6     1   ar
    37    15    10    1
    38    31    26   ar
@<TRIPOS>MOLECULE
*****
 35 38 0 0 0
SMALL
GASTEIGER

@<TRIPOS>ATOM
      1 C          64.5302   89.2154   14.9495 C.ar    1  UNL1        0.0541
      2 C          64.9671   87.8575   14.4856 C.ar    1  UNL1        0.0076
      3 C          64.3658   86.6268   15.0970 C.ar    1  UNL1        0.0371
      4 C          63.3276   86.7540   16.1722 C.ar    1  UNL1        0.1391
      5 C          62.8908   88.1119   16.6361 C.ar    1  UNL1        0.0371
      6 C          63.4921   89.3426   16.0248 C.ar    1  UNL1        0.0076
      7 N          64.6050   90.9703   13.0351 N.am    1  UNL1       -0.2368
      8 C          65.1315   90.4462   14.3382 C.2     1  UNL1        0.2541
      9 O          66.2593   91.1529   15.0300 O.2     1  UNL1       -0.2695
     10 C          65.2062   92.2011   12.4238 C.3     1  UNL1        0.0819
     11 C          65.8109   93.2560   13.3021 C.3     1  UNL1        0.0203
     12 C          66.4121   94.4868   12.6908 C.3     1  UNL1        0.0017
     13 C          66.4087   94.6626   11.2011 C.3     1  UNL1        0.0001
     14 C          65.8041   93.6076   10.3228 C.3     1  UNL1        0.0017
     15 C          65.2029   92.3769   10.9341 C.3     1  UNL1        0.0203
     16 C          61.3957   89.8329   11.1716 C.ar    1  UNL1        0.0652
     17 C          62.0875   88.5193   11.3857 C.ar    1  UNL1        0.1085
     18 N          63.3739   88.7855   12.1098 N.ar    1  UNL1       -0.2221
     19 C          63.4771   90.2636   12.3433 C.ar    1  UNL1        0.1691
     20 S          62.2545   90.9110   11.7635 S.2     1  UNL1       -0.0500
     21 O          59.0351   90.9161   11.1072 O.co2   1  UNL1       -0.5440
     22 C          60.0766   90.0334   10.4861 C.2     1  UNL1        0.0805
     23 O          59.7992   89.3510    9.1795 O.co2   1  UNL1       -0.5440
     24 O          62.7264   85.5232   16.7835 O.3     1  UNL1       -0.4706
     25 C          62.0345   84.5154   15.9143 C.3     1  UNL1        0.2320
     26 C          62.6904   84.0364   14.6532 C.ar    1  UNL1        0.0211
     27 C          63.7139   82.9413   14.7094 C.ar    1  UNL1       -0.0007
     28 C          64.3698   82.4624   13.4483 C.ar    1  UNL1       -0.0003
     29 C          64.0023   83.0786   12.1310 C.ar    1  UNL1        0.0038
     30 C          62.9789   84.1738   12.0748 C.ar    1  UNL1        0.0712
     31 C          62.3229   84.6527   13.3359 C.ar    1  UNL1        0.0032
     32 C          62.6114   84.7900   10.7575 C.3     1  UNL1        0.4186
     33 F          62.2439   85.4062    9.4403 F       1  UNL1       -0.1659
     34 F          63.7917   84.1227   10.1161 F       1  UNL1       -0.1659
     35 F          61.4310   85.4573   11.3990 F       1  UNL1       -0.1659
@<TRIPOS>UNITY_ATOM_ATTR
21 1
charge -1
@<TRIPOS>BOND
     1    21    22   ar
     2    22    23   ar
     3    22    16    1
     4    16    17   ar
     5    17    18   ar
     6    18    19   ar
     7    19     7    1
     8     7     8   am
     9     8     9    2
    10     8     1    1
    11     1     2   ar
    12     2     3   ar
    13     3     4   ar
    14     4    24    1
    15    24    25    1
    16    25    26    1
    17    26    27   ar
    18    27    28   ar
    19    28    29   ar
    20    29    30   ar
    21    30    32    1
    22    32    33    1
    23    32    34    1
    24    32    35    1
    25    30    31   ar
    26     4     5   ar
    27     5     6   ar
    28     7    10    1
    29    10    11    1
    30    11    12    1
    31    12    13    1
    32    13    14    1
    33    14    15    1
    34    19    20   ar
    35    20    16   ar
    36     6     1   ar
    37    15    10    1
    38    31    26   ar
@<TRIPOS>MOLECULE
*****
 35 38 0 0 0
SMALL
GASTEIGER

@<TRIPOS>ATOM
      1 C          63.8625   90.4525   11.9353 C.ar    1  UNL1        0.0541
      2 C          63.6300   89.0143   12.2921 C.ar    1  UNL1        0.0076
      3 C          62.4707   88.2718   11.6965 C.ar    1  UNL1        0.0371
      4 C          61.5440   88.9675   10.7440 C.ar    1  UNL1        0.1391
      5 C          61.7765   90.4057   10.3872 C.ar    1  UNL1        0.0371
      6 C          62.9358   91.1482   10.9828 C.ar    1  UNL1        0.0076
      7 N          65.3299   91.0568   13.9924 N.am    1  UNL1       -0.2368
      8 C          65.0218   91.1951   12.5310 C.2     1  UNL1        0.2541
      9 O          65.8729   92.0759   11.6651 O.2     1  UNL1       -0.2695
     10 C          66.4891   91.7994   14.5881 C.3     1  UNL1        0.0819
     11 C          67.8910   91.3319   14.3312 C.3     1  UNL1        0.0203
     12 C          69.0502   92.0745   14.9268 C.3     1  UNL1        0.0017
     13 C          68.8075   93.2846   15.7793 C.3     1  UNL1        0.0001
     14 C          67.4056   93.7521   16.0362 C.3     1  UNL1        0.0017
     15 C          66.2464   93.0095   15.4406 C.3     1  UNL1        0.0203
     16 C          63.5988   88.2318   16.0144 C.ar    1  UNL1        0.0652
     17 C          62.7392   89.4093   16.3672 C.ar    1  UNL1        0.1085
     18 N          63.2830   90.6109   15.6527 N.ar    1  UNL1       -0.2221
     19 C          64.4787   90.1760   14.8583 C.ar    1  UNL1        0.1691
     20 S          64.6739   88.7057   15.0818 S.2     1  UNL1       -0.0500
     21 O          62.4459   86.5418   17.6157 O.co2   1  UNL1       -0.5440
     22 C          63.4156   86.8271   16.5075 C.2     1  UNL1        0.0805
     23 O          64.2021   85.7077   15.8923 O.co2   1  UNL1       -0.5440
     24 O          60.3848   88.2249   10.1484 O.3     1  UNL1       -0.4706
     25 C          60.6257   87.1520    9.1282 C.3     1  UNL1        0.2320
     26 C          61.5947   86.0444    9.4191 C.ar    1  UNL1        0.0211
     27 C          62.5274   85.5632    8.3475 C.ar    1  UNL1       -0.0007
     28 C          63.4963   84.4557    8.6385 C.ar    1  UNL1       -0.0003
     29 C          63.5324   83.8294   10.0010 C.ar    1  UNL1        0.0038
     30 C          62.5997   84.3107   11.0726 C.ar    1  UNL1        0.0712
     31 C          61.6308   85.4181   10.7816 C.ar    1  UNL1        0.0032
     32 C          62.6358   83.6844   12.4351 C.3     1  UNL1        0.4186
     33 F          62.6719   83.0581   13.7976 F       1  UNL1       -0.1659
     34 F          62.5950   85.0464   13.0622 F       1  UNL1       -0.1659
     35 F          62.6766   82.3224   11.8080 F       1  UNL1       -0.1659
@<TRIPOS>UNITY_ATOM_ATTR
21 1
charge -1
@<TRIPOS>BOND
     1    21    22   ar
     2    22    23   ar
     3    22    16    1
     4    16    17   ar
     5    17    18   ar
     6    18    19   ar
     7    19     7    1
     8     7     8   am
     9     8     9    2
    10     8     1    1
    11     1     2   ar
    12     2     3   ar
    13     3     4   ar
    14     4    24    1
    15    24    25    1
    16    25    26    1
    17    26    27   ar
    18    27    28   ar
    19    28    29   ar
    20    29    30   ar
    21    30    32    1
    22    32    33    1
    23    32    34    1
    24    32    35    1
    25    30    31   ar
    26     4     5   ar
    27     5     6   ar
    28     7    10    1
    29    10    11    1
    30    11    12    1
    31    12    13    1
    32    13    14    1
    33    14    15    1
    34    19    20   ar
    35    20    16   ar
    36     6     1   ar
    37    15    10    1
    38    31    26   ar
@<TRIPOS>MOLECULE
*****
 35 38 0 0 0
SMALL
GASTEIGER

@<TRIPOS>ATOM
      1 C          62.8862   88.6246   12.0220 C.ar    1  UNL1        0.0541
      2 C          63.8186   87.8916   12.9402 C.ar    1  UNL1        0.0076
      3 C          64.1598   88.4708   14.2811 C.ar    1  UNL1        0.0371
      4 C          63.5686   89.7829   14.7038 C.ar    1  UNL1        0.1391
      5 C          62.6362   90.5160   13.7856 C.ar    1  UNL1        0.0371
      6 C          62.2949   89.9368   12.4447 C.ar    1  UNL1        0.0076
      7 N          62.3304   86.5682   10.5347 N.am    1  UNL1       -0.2368
      8 C          62.5449   88.0455   10.6810 C.2     1  UNL1        0.2541
      9 O          62.4181   88.9438    9.4864 O.2     1  UNL1       -0.2695
     10 C          61.9891   85.9890    9.1937 C.3     1  UNL1        0.0819
     11 C          63.0413   85.2813    8.3926 C.3     1  UNL1        0.0203
     12 C          62.7000   84.7022    7.0516 C.3     1  UNL1        0.0017
     13 C          61.3065   84.8309    6.5118 C.3     1  UNL1        0.0001
     14 C          60.2542   85.5386    7.3129 C.3     1  UNL1        0.0017
     15 C          60.5955   86.1177    8.6538 C.3     1  UNL1        0.0203
     16 C          63.1819   83.8919   13.2138 C.ar    1  UNL1        0.0652
     17 C          62.1223   84.6834   13.9214 C.ar    1  UNL1        0.1085
     18 N          61.6744   85.7823   13.0039 N.ar    1  UNL1       -0.2221
     19 C          62.4571   85.6699   11.7293 C.ar    1  UNL1        0.1691
     20 S          63.3888   84.5016   11.8590 S.2     1  UNL1       -0.0500
     21 O          64.2629   81.5558   12.8620 O.co2   1  UNL1       -0.5440
     22 C          63.9073   82.6999   13.7643 C.2     1  UNL1        0.0805
     23 O          64.2771   82.6522   15.2172 O.co2   1  UNL1       -0.5440
     24 O          63.9099   90.3621   16.0448 O.3     1  UNL1       -0.4706
     25 C          64.4820   91.7453   16.1408 C.3     1  UNL1        0.2320
     26 C          65.8467   92.0325   15.5883 C.ar    1  UNL1        0.0211
     27 C          66.9418   92.5005   16.5003 C.ar    1  UNL1       -0.0007
     28 C          68.3064   92.7877   15.9478 C.ar    1  UNL1       -0.0003
     29 C          68.5759   92.6069   14.4834 C.ar    1  UNL1        0.0038
     30 C          67.4809   92.1390   13.5714 C.ar    1  UNL1        0.0712
     31 C          66.1162   91.8518   14.1239 C.ar    1  UNL1        0.0032
     32 C          67.7504   91.9582   12.1069 C.3     1  UNL1        0.4186
     33 F          68.0199   91.7775   10.6424 F       1  UNL1       -0.1659
     34 F          66.3989   92.5256   11.7882 F       1  UNL1       -0.1659
     35 F          69.1019   91.3909   12.4257 F       1  UNL1       -0.1659
@<TRIPOS>UNITY_ATOM_ATTR
21 1
charge -1
@<TRIPOS>BOND
     1    21    22   ar
     2    22    23   ar
     3    22    16    1
     4    16    17   ar
     5    17    18   ar
     6    18    19   ar
     7    19     7    1
     8     7     8   am
     9     8     9    2
    10     8     1    1
    11     1     2   ar
    12     2     3   ar
    13     3     4   ar
    14     4    24    1
    15    24    25    1
    16    25    26    1
    17    26    27   ar
    18    27    28   ar
    19    28    29   ar
    20    29    30   ar
    21    30    32    1
    22    32    33    1
    23    32    34    1
    24    32    35    1
    25    30    31   ar
    26     4     5   ar
    27     5     6   ar
    28     7    10    1
    29    10    11    1
    30    11    12    1
    31    12    13    1
    32    13    14    1
    33    14    15    1
    34    19    20   ar
    35    20    16   ar
    36     6     1   ar
    37    15    10    1
    38    31    26   ar
@<TRIPOS>MOLECULE
*****
 35 38 0 0 0
SMALL
GASTEIGER

@<TRIPOS>ATOM
      1 C          63.9694   90.8501   12.7382 C.ar    1  UNL1        0.0541
      2 C          64.2196   91.1903   11.2989 C.ar    1  UNL1        0.0076
      3 C          63.1992   90.8393   10.2571 C.ar    1  UNL1        0.0371
      4 C          61.9287   90.1480   10.6545 C.ar    1  UNL1        0.1391
      5 C          61.6785   89.8078   12.0938 C.ar    1  UNL1        0.0371
      6 C          62.6989   90.1588   13.1357 C.ar    1  UNL1        0.0076
      7 N          66.0887   92.1698   13.4574 N.am    1  UNL1       -0.2368
      8 C          64.9899   91.2011   13.7802 C.2     1  UNL1        0.2541
      9 O          64.9114   90.5834   15.1448 O.2     1  UNL1       -0.2695
     10 C          67.1091   92.5208   14.4994 C.3     1  UNL1        0.0819
     11 C          67.8096   91.4338   15.2594 C.3     1  UNL1        0.0203
     12 C          68.8299   91.7848   16.3013 C.3     1  UNL1        0.0017
     13 C          69.1498   93.2229   16.5832 C.3     1  UNL1        0.0001
     14 C          68.4494   94.3100   15.8232 C.3     1  UNL1        0.0017
     15 C          67.4290   93.9589   14.7813 C.3     1  UNL1        0.0203
     16 C          66.9319   93.3752    9.8656 C.ar    1  UNL1        0.0652
     17 C          65.6440   94.1008   10.1199 C.ar    1  UNL1        0.1085
     18 N          65.1714   93.7376   11.4964 N.ar    1  UNL1       -0.2221
     19 C          66.1672   92.7875   12.0928 C.ar    1  UNL1        0.1691
     20 S          67.2553   92.5635   11.0848 S.2     1  UNL1       -0.0500
     21 O          68.6530   92.3088    8.2376 O.co2   1  UNL1       -0.5440
     22 C          67.7525   93.4484    8.6120 C.2     1  UNL1        0.0805
     23 O          67.6724   94.6612    7.7330 O.co2   1  UNL1       -0.5440
     24 O          60.9082   89.7970    9.6126 O.3     1  UNL1       -0.4706
     25 C          60.3125   88.4208    9.5799 C.3     1  UNL1        0.2320
     26 C          61.2048   87.2159    9.6274 C.ar    1  UNL1        0.0211
     27 C          61.7422   86.6300    8.3554 C.ar    1  UNL1       -0.0007
     28 C          62.6345   85.4252    8.4030 C.ar    1  UNL1       -0.0003
     29 C          62.9894   84.8063    9.7225 C.ar    1  UNL1        0.0038
     30 C          62.4520   85.3922   10.9944 C.ar    1  UNL1        0.0712
     31 C          61.5597   86.5970   10.9469 C.ar    1  UNL1        0.0032
     32 C          62.8068   84.7733   12.3139 C.3     1  UNL1        0.4186
     33 F          63.1617   84.1545   13.6334 F       1  UNL1       -0.1659
     34 F          63.3153   86.0986   12.7987 F       1  UNL1       -0.1659
     35 F          62.2983   83.4481   11.8290 F       1  UNL1       -0.1659
@<TRIPOS>UNITY_ATOM_ATTR
21 1
charge -1
@<TRIPOS>BOND
     1    21    22   ar
     2    22    23   ar
     3    22    16    1
     4    16    17   ar
     5    17    18   ar
     6    18    19   ar
     7    19     7    1
     8     7     8   am
     9     8     9    2
    10     8     1    1
    11     1     2   ar
    12     2     3   ar
    13     3     4   ar
    14     4    24    1
    15    24    25    1
    16    25    26    1
    17    26    27   ar
    18    27    28   ar
    19    28    29   ar
    20    29    30   ar
    21    30    32    1
    22    32    33    1
    23    32    34    1
    24    32    35    1
    25    30    31   ar
    26     4     5   ar
    27     5     6   ar
    28     7    10    1
    29    10    11    1
    30    11    12    1
    31    12    13    1
    32    13    14    1
    33    14    15    1
    34    19    20   ar
    35    20    16   ar
    36     6     1   ar
    37    15    10    1
    38    31    26   ar
