@<TRIPOS>MOLECULE
*****
 29 32 0 0 0
SMALL
GASTEIGER

@<TRIPOS>ATOM
      1 N          61.9542   87.8348   10.2043 N.pl3   1  UNL1       -0.2996
      2 C          62.1516   89.3217   10.2218 C.3     1  UNL1        0.1208
      3 C          62.8891   89.6767   11.4788 C.ar    1  UNL1        0.0336
      4 C          63.4669   90.8150   12.2665 C.ar    1  UNL1        0.0990
      5 N          64.0824   90.2510   13.5127 N.ar    1  UNL1       -0.2287
      6 N          63.8851   88.7641   13.4952 N.ar    1  UNL1       -0.1681
      7 C          63.1476   88.4092   12.2382 C.ar    1  UNL1        0.0960
      8 C          62.5698   87.2708   11.4506 C.3     1  UNL1        0.1147
      9 C          61.3509   85.3000    7.2110 C.ar    1  UNL1        0.2262
     10 C          62.0423   86.0850    8.2859 C.ar    1  UNL1        0.0722
     11 C          61.2627   87.0498    9.1294 C.ar    1  UNL1        0.0546
     12 C          59.7916   87.2294    8.8980 C.ar    1  UNL1        0.0354
     13 C          59.1001   86.4444    7.8230 C.ar    1  UNL1        0.1033
     14 N          59.8797   85.4797    6.9795 N.ar    1  UNL1       -0.2101
     15 C          61.8067   84.1811    4.9109 C.3     1  UNL1        0.2542
     16 O          62.1305   84.3352    6.3674 O.3     1  UNL1       -0.4561
     17 C          64.7739   91.0360   14.5876 C.ar    1  UNL1        0.0841
     18 C          64.0394   91.3935   15.8457 C.ar    1  UNL1        0.0192
     19 C          64.7310   92.1785   16.9206 C.ar    1  UNL1        0.0029
     20 C          66.1570   92.6061   16.7376 C.ar    1  UNL1        0.0184
     21 C          66.8916   92.2486   15.4795 C.ar    1  UNL1        0.1072
     22 C          66.2000   91.4636   14.4046 C.ar    1  UNL1        0.0375
     23 S          68.3176   92.6762   15.2964 S.O2    1  UNL1        0.0105
     24 C          69.7437   93.1037   15.1133 C.3     1  UNL1        0.1816
     25 O          68.0108   93.0975   13.8899 O.2     1  UNL1       -0.1686
     26 O          68.6245   92.2548   16.7030 O.2     1  UNL1       -0.1686
     27 C          62.6019   85.8228   11.8407 C.3     1  UNL1        0.0240
     28 C          61.9014   84.8021   10.9935 C.3     1  UNL1        0.0021
     29 C          63.3345   85.3954   13.0778 C.3     1  UNL1        0.0021
@<TRIPOS>BOND
     1    15    16    1
     2    16     9    1
     3     9    10   ar
     4    10    11   ar
     5    11     1    1
     6     1     2    1
     7     2     3    1
     8     3     4   ar
     9     4     5   ar
    10     5    17    1
    11    17    18   ar
    12    18    19   ar
    13    19    20   ar
    14    20    21   ar
    15    21    23    1
    16    23    24    1
    17    23    25    2
    18    23    26    2
    19    21    22   ar
    20     5     6   ar
    21     6     7   ar
    22     7     8    1
    23     8    27    1
    24    27    28    1
    25    27    29    1
    26    11    12   ar
    27    12    13   ar
    28    13    14   ar
    29    14     9   ar
    30     8     1    1
    31     7     3   ar
    32    22    17   ar
@<TRIPOS>MOLECULE
*****
 29 32 0 0 0
SMALL
GASTEIGER

@<TRIPOS>ATOM
      1 N          63.1698   84.2308   13.6023 N.pl3   1  UNL1       -0.2996
      2 C          63.7564   84.8309   14.8456 C.3     1  UNL1        0.1208
      3 C          63.9817   86.2923   14.5932 C.ar    1  UNL1        0.0336
      4 C          64.4835   87.5663   15.2057 C.ar    1  UNL1        0.0990
      5 N          64.3462   88.6567   14.1849 N.ar    1  UNL1       -0.2287
      6 N          63.7595   88.0567   12.9416 N.ar    1  UNL1       -0.1681
      7 C          63.5343   86.5953   13.1940 C.ar    1  UNL1        0.0960
      8 C          63.0325   85.3213   12.5815 C.3     1  UNL1        0.1147
      9 C          61.2259   80.7892   13.9581 C.ar    1  UNL1        0.2262
     10 C          61.6081   82.2272   14.1474 C.ar    1  UNL1        0.0722
     11 C          62.7876   82.7928   13.4131 C.ar    1  UNL1        0.0546
     12 C          63.5848   81.9201   12.4895 C.ar    1  UNL1        0.0354
     13 C          63.2026   80.4820   12.3002 C.ar    1  UNL1        0.1033
     14 N          62.0231   79.9165   13.0345 N.ar    1  UNL1       -0.2101
     15 C          58.6573   80.4704   14.1832 C.3     1  UNL1        0.2542
     16 O          60.0464   80.2237   14.6925 O.3     1  UNL1       -0.4561
     17 C          64.7284   90.0948   14.3741 C.ar    1  UNL1        0.0841
     18 C          64.6481   90.7193   15.7356 C.ar    1  UNL1        0.0192
     19 C          65.0303   92.1574   15.9247 C.ar    1  UNL1        0.0029
     20 C          65.4929   92.9711   14.7525 C.ar    1  UNL1        0.0184
     21 C          65.5732   92.3466   13.3911 C.ar    1  UNL1        0.1072
     22 C          65.1909   90.9084   13.2019 C.ar    1  UNL1        0.0375
     23 S          66.0357   93.1601   12.2188 S.O2    1  UNL1        0.0105
     24 C          66.4983   93.9737   11.0466 C.3     1  UNL1        0.1816
     25 O          64.9125   92.6077   11.3922 O.2     1  UNL1       -0.1686
     26 O          67.1590   93.7125   13.0455 O.2     1  UNL1       -0.1686
     27 C          62.4889   85.1652   11.1922 C.3     1  UNL1        0.0240
     28 C          63.1813   84.2644   10.2128 C.3     1  UNL1        0.0021
     29 C          61.2529   85.9097   10.7824 C.3     1  UNL1        0.0021
@<TRIPOS>BOND
     1    15    16    1
     2    16     9    1
     3     9    10   ar
     4    10    11   ar
     5    11     1    1
     6     1     2    1
     7     2     3    1
     8     3     4   ar
     9     4     5   ar
    10     5    17    1
    11    17    18   ar
    12    18    19   ar
    13    19    20   ar
    14    20    21   ar
    15    21    23    1
    16    23    24    1
    17    23    25    2
    18    23    26    2
    19    21    22   ar
    20     5     6   ar
    21     6     7   ar
    22     7     8    1
    23     8    27    1
    24    27    28    1
    25    27    29    1
    26    11    12   ar
    27    12    13   ar
    28    13    14   ar
    29    14     9   ar
    30     8     1    1
    31     7     3   ar
    32    22    17   ar
@<TRIPOS>MOLECULE
*****
 29 32 0 0 0
SMALL
GASTEIGER

@<TRIPOS>ATOM
      1 N          63.1849   84.5318   13.4380 N.pl3   1  UNL1       -0.2996
      2 C          63.8807   85.0863   14.6457 C.3     1  UNL1        0.1208
      3 C          64.1051   86.5520   14.4193 C.ar    1  UNL1        0.0336
      4 C          64.6738   87.8005   15.0257 C.ar    1  UNL1        0.0990
      5 N          64.4681   88.9236   14.0528 N.ar    1  UNL1       -0.2287
      6 N          63.7723   88.3691   12.8452 N.ar    1  UNL1       -0.1681
      7 C          63.5479   86.9034   13.0716 C.ar    1  UNL1        0.0960
      8 C          62.9792   85.6549   12.4652 C.3     1  UNL1        0.1147
      9 C          62.7242   80.9571   11.7771 C.ar    1  UNL1        0.2262
     10 C          63.1411   82.3840   11.9768 C.ar    1  UNL1        0.0722
     11 C          62.7680   83.1049   13.2383 C.ar    1  UNL1        0.0546
     12 C          61.9779   82.3987   14.2999 C.ar    1  UNL1        0.0354
     13 C          61.5609   80.9717   14.1002 C.ar    1  UNL1        0.1033
     14 N          61.9341   80.2509   12.8388 N.ar    1  UNL1       -0.2101
     15 C          62.7458   78.7877   10.3477 C.3     1  UNL1        0.2542
     16 O          63.0973   80.2362   10.5156 O.3     1  UNL1       -0.4561
     17 C          64.8850   90.3506   14.2526 C.ar    1  UNL1        0.0841
     18 C          64.9360   90.9306   15.6349 C.ar    1  UNL1        0.0192
     19 C          65.3530   92.3576   15.8346 C.ar    1  UNL1        0.0029
     20 C          65.7189   93.2046   14.6519 C.ar    1  UNL1        0.0184
     21 C          65.6679   92.6246   13.2696 C.ar    1  UNL1        0.1072
     22 C          65.2510   91.1975   13.0699 C.ar    1  UNL1        0.0375
     23 S          66.0338   93.4715   12.0869 S.O2    1  UNL1        0.0105
     24 C          66.3997   94.3183   10.9041 C.3     1  UNL1        0.1816
     25 O          66.3163   94.6265   13.0012 O.2     1  UNL1       -0.1686
     26 O          65.7513   92.3164   11.1724 O.2     1  UNL1       -0.1686
     27 C          62.3205   85.5482   11.1218 C.3     1  UNL1        0.0240
     28 C          61.0235   86.2563   10.8641 C.3     1  UNL1        0.0021
     29 C          62.9588   84.7334   10.0361 C.3     1  UNL1        0.0021
@<TRIPOS>BOND
     1    15    16    1
     2    16     9    1
     3     9    10   ar
     4    10    11   ar
     5    11     1    1
     6     1     2    1
     7     2     3    1
     8     3     4   ar
     9     4     5   ar
    10     5    17    1
    11    17    18   ar
    12    18    19   ar
    13    19    20   ar
    14    20    21   ar
    15    21    23    1
    16    23    24    1
    17    23    25    2
    18    23    26    2
    19    21    22   ar
    20     5     6   ar
    21     6     7   ar
    22     7     8    1
    23     8    27    1
    24    27    28    1
    25    27    29    1
    26    11    12   ar
    27    12    13   ar
    28    13    14   ar
    29    14     9   ar
    30     8     1    1
    31     7     3   ar
    32    22    17   ar
@<TRIPOS>MOLECULE
*****
 29 32 0 0 0
SMALL
GASTEIGER

@<TRIPOS>ATOM
      1 N          61.6843   86.2030   10.4103 N.pl3   1  UNL1       -0.2996
      2 C          61.0768   85.8049    9.0979 C.3     1  UNL1        0.1208
      3 C          60.6134   87.0516    8.4044 C.ar    1  UNL1        0.0336
      4 C          59.9516   87.5760    7.1646 C.ar    1  UNL1        0.0990
      5 N          59.8637   89.0688    7.2822 N.ar    1  UNL1       -0.2287
      6 N          60.4712   89.4670    8.5946 N.ar    1  UNL1       -0.1681
      7 C          60.9346   88.2202    9.2882 C.ar    1  UNL1        0.0960
      8 C          61.5964   87.6958   10.5279 C.3     1  UNL1        0.1147
      9 C          62.5907   84.5497   13.9024 C.ar    1  UNL1        0.2262
     10 C          61.9992   85.4808   12.8861 C.ar    1  UNL1        0.0722
     11 C          62.2759   85.2719   11.4266 C.ar    1  UNL1        0.0546
     12 C          63.1441   84.1317   10.9837 C.ar    1  UNL1        0.0354
     13 C          63.7357   83.2005   12.0000 C.ar    1  UNL1        0.1033
     14 N          63.4590   83.4095   13.4594 N.ar    1  UNL1       -0.2101
     15 C          63.3108   85.4823   16.2180 C.3     1  UNL1        0.2542
     16 O          62.3141   84.7587   15.3619 O.3     1  UNL1       -0.4561
     17 C          59.2721   89.9999    6.2659 C.ar    1  UNL1        0.0841
     18 C          57.7857   90.1895    6.1978 C.ar    1  UNL1        0.0192
     19 C          57.1942   91.1207    5.1814 C.ar    1  UNL1        0.0029
     20 C          58.0891   91.8623    4.2331 C.ar    1  UNL1        0.0184
     21 C          59.5755   91.6728    4.3012 C.ar    1  UNL1        0.1072
     22 C          60.1670   90.7415    5.3176 C.ar    1  UNL1        0.0375
     23 S          60.4704   92.4143    3.3529 S.O2    1  UNL1        0.0105
     24 C          61.3654   93.1558    2.4047 C.3     1  UNL1        0.1816
     25 O          59.2695   93.0453    2.7129 O.2     1  UNL1       -0.1686
     26 O          61.6714   91.7833    3.9931 O.2     1  UNL1       -0.1686
     27 C          62.0847   88.5196   11.6825 C.3     1  UNL1        0.0240
     28 C          61.2463   89.6477   12.2066 C.3     1  UNL1        0.0021
     29 C          63.4112   88.2153   12.3130 C.3     1  UNL1        0.0021
@<TRIPOS>BOND
     1    15    16    1
     2    16     9    1
     3     9    10   ar
     4    10    11   ar
     5    11     1    1
     6     1     2    1
     7     2     3    1
     8     3     4   ar
     9     4     5   ar
    10     5    17    1
    11    17    18   ar
    12    18    19   ar
    13    19    20   ar
    14    20    21   ar
    15    21    23    1
    16    23    24    1
    17    23    25    2
    18    23    26    2
    19    21    22   ar
    20     5     6   ar
    21     6     7   ar
    22     7     8    1
    23     8    27    1
    24    27    28    1
    25    27    29    1
    26    11    12   ar
    27    12    13   ar
    28    13    14   ar
    29    14     9   ar
    30     8     1    1
    31     7     3   ar
    32    22    17   ar
@<TRIPOS>MOLECULE
*****
 29 32 0 0 0
SMALL
GASTEIGER

@<TRIPOS>ATOM
      1 N          62.5782   83.9054   12.7846 N.pl3   1  UNL1       -0.2996
      2 C          62.2134   84.7231   11.5811 C.3     1  UNL1        0.1208
      3 C          62.7031   86.1230   11.8059 C.ar    1  UNL1        0.0336
      4 C          62.7803   87.4935   11.2011 C.ar    1  UNL1        0.0990
      5 N          63.4955   88.3880   12.1697 N.ar    1  UNL1       -0.2287
      6 N          63.8604   87.5703   13.3732 N.ar    1  UNL1       -0.1681
      7 C          63.3707   86.1705   13.1484 C.ar    1  UNL1        0.0960
      8 C          63.2935   84.8000   13.7532 C.3     1  UNL1        0.1147
      9 C          62.4221   79.9896   12.1592 C.ar    1  UNL1        0.2262
     10 C          62.7202   81.4459   11.9594 C.ar    1  UNL1        0.0722
     11 C          62.2802   82.4490   12.9843 C.ar    1  UNL1        0.0546
     12 C          61.5422   81.9956   14.2090 C.ar    1  UNL1        0.0354
     13 C          61.2441   80.5391   14.4088 C.ar    1  UNL1        0.1033
     14 N          61.6841   79.5361   13.3839 N.ar    1  UNL1       -0.2101
     15 C          62.8613   79.3512    9.6794 C.3     1  UNL1        0.2542
     16 O          62.8621   78.9865   11.1343 O.3     1  UNL1       -0.4561
     17 C          63.7936   89.8444   11.9700 C.ar    1  UNL1        0.0841
     18 C          63.1936   90.5804   10.8088 C.ar    1  UNL1        0.0192
     19 C          63.4917   92.0369   10.6092 C.ar    1  UNL1        0.0029
     20 C          64.3898   92.7574   11.5706 C.ar    1  UNL1        0.0184
     21 C          64.9898   92.0214   12.7317 C.ar    1  UNL1        0.1072
     22 C          64.6917   90.5649   12.9314 C.ar    1  UNL1        0.0375
     23 S          65.8878   92.7418   13.6932 S.O2    1  UNL1        0.0105
     24 C          66.7859   93.4622   14.6547 C.3     1  UNL1        0.1816
     25 O          66.7047   93.2561   12.5450 O.2     1  UNL1       -0.1686
     26 O          65.0710   92.2275   14.8414 O.2     1  UNL1       -0.1686
     27 C          63.8363   84.3951   15.0917 C.3     1  UNL1        0.0240
     28 C          64.7452   83.2071   15.2042 C.3     1  UNL1        0.0021
     29 C          63.4703   85.1782   16.3175 C.3     1  UNL1        0.0021
@<TRIPOS>BOND
     1    15    16    1
     2    16     9    1
     3     9    10   ar
     4    10    11   ar
     5    11     1    1
     6     1     2    1
     7     2     3    1
     8     3     4   ar
     9     4     5   ar
    10     5    17    1
    11    17    18   ar
    12    18    19   ar
    13    19    20   ar
    14    20    21   ar
    15    21    23    1
    16    23    24    1
    17    23    25    2
    18    23    26    2
    19    21    22   ar
    20     5     6   ar
    21     6     7   ar
    22     7     8    1
    23     8    27    1
    24    27    28    1
    25    27    29    1
    26    11    12   ar
    27    12    13   ar
    28    13    14   ar
    29    14     9   ar
    30     8     1    1
    31     7     3   ar
    32    22    17   ar
@<TRIPOS>MOLECULE
*****
 29 32 0 0 0
SMALL
GASTEIGER

@<TRIPOS>ATOM
      1 N          59.8926   92.9304    2.5259 N.pl3   1  UNL1       -0.2996
      2 C          58.6773   92.5498    3.3185 C.3     1  UNL1        0.1208
      3 C          59.1114   91.6266    4.4182 C.ar    1  UNL1        0.0336
      4 C          58.6286   90.8209    5.5877 C.ar    1  UNL1        0.0990
      5 N          59.8139   90.1329    6.1975 N.ar    1  UNL1       -0.2287
      6 N          61.0292   90.5135    5.4049 N.ar    1  UNL1       -0.1681
      7 C          60.5951   91.4366    4.3052 C.ar    1  UNL1        0.0960
      8 C          61.0779   92.2424    3.1357 C.3     1  UNL1        0.1147
      9 C          59.8718   94.1725   -1.2432 C.ar    1  UNL1        0.2262
     10 C          59.8462   93.2636   -0.0503 C.ar    1  UNL1        0.0722
     11 C          59.9181   93.8393    1.3330 C.ar    1  UNL1        0.0546
     12 C          60.0156   95.3240    1.5232 C.ar    1  UNL1        0.0354
     13 C          60.0412   96.2330    0.3303 C.ar    1  UNL1        0.1033
     14 N          59.9693   95.6572   -1.0530 N.ar    1  UNL1       -0.2101
     15 C          58.5875   92.8246   -3.0554 C.3     1  UNL1        0.2542
     16 O          59.7999   93.5967   -2.6265 O.3     1  UNL1       -0.4561
     17 C          59.7884   89.2240    7.3904 C.ar    1  UNL1        0.0841
     18 C          59.1273   87.8808    7.2959 C.ar    1  UNL1        0.0192
     19 C          59.1018   86.9719    8.4890 C.ar    1  UNL1        0.0029
     20 C          59.7374   87.4061    9.7764 C.ar    1  UNL1        0.0184
     21 C          60.3984   88.7493    9.8709 C.ar    1  UNL1        0.1072
     22 C          60.4239   89.6582    8.6779 C.ar    1  UNL1        0.0375
     23 S          61.0339   89.1835   11.1583 S.O2    1  UNL1        0.0105
     24 C          61.6695   89.6179   12.4457 C.3     1  UNL1        0.1816
     25 O          59.9612   88.4717   11.9281 O.2     1  UNL1       -0.1686
     26 O          62.1067   89.8954   10.3885 O.2     1  UNL1       -0.1686
     27 C          62.4968   92.3425    2.6596 C.3     1  UNL1        0.0240
     28 C          63.4464   91.2039    2.8872 C.3     1  UNL1        0.0021
     29 C          62.9661   93.5813    1.9560 C.3     1  UNL1        0.0021
@<TRIPOS>BOND
     1    15    16    1
     2    16     9    1
     3     9    10   ar
     4    10    11   ar
     5    11     1    1
     6     1     2    1
     7     2     3    1
     8     3     4   ar
     9     4     5   ar
    10     5    17    1
    11    17    18   ar
    12    18    19   ar
    13    19    20   ar
    14    20    21   ar
    15    21    23    1
    16    23    24    1
    17    23    25    2
    18    23    26    2
    19    21    22   ar
    20     5     6   ar
    21     6     7   ar
    22     7     8    1
    23     8    27    1
    24    27    28    1
    25    27    29    1
    26    11    12   ar
    27    12    13   ar
    28    13    14   ar
    29    14     9   ar
    30     8     1    1
    31     7     3   ar
    32    22    17   ar
@<TRIPOS>MOLECULE
*****
 29 32 0 0 0
SMALL
GASTEIGER

@<TRIPOS>ATOM
      1 N          61.7425   87.7611   10.3664 N.pl3   1  UNL1       -0.2996
      2 C          62.8475   87.2893   11.2646 C.3     1  UNL1        0.1208
      3 C          63.1683   88.3956   12.2253 C.ar    1  UNL1        0.0336
      4 C          64.0494   88.7877   13.3742 C.ar    1  UNL1        0.0990
      5 N          63.6874   90.1857   13.7799 N.ar    1  UNL1       -0.2287
      6 N          62.5825   90.6576   12.8818 N.ar    1  UNL1       -0.1681
      7 C          62.2617   89.5512   11.9210 C.ar    1  UNL1        0.0960
      8 C          61.3805   89.1591   10.7722 C.3     1  UNL1        0.1147
      9 C          61.3165   85.2666    7.3094 C.ar    1  UNL1        0.2262
     10 C          61.9484   86.0543    8.4184 C.ar    1  UNL1        0.0722
     11 C          61.1107   86.9734    9.2574 C.ar    1  UNL1        0.0546
     12 C          59.6411   87.1045    8.9872 C.ar    1  UNL1        0.0354
     13 C          59.0091   86.3167    7.8781 C.ar    1  UNL1        0.1033
     14 N          59.8468   85.3978    7.0392 N.ar    1  UNL1       -0.2101
     15 C          61.8750   84.2084    5.0033 C.3     1  UNL1        0.2542
     16 O          62.1542   84.3476    6.4704 O.3     1  UNL1       -0.4561
     17 C          64.3193   90.9735   14.8889 C.ar    1  UNL1        0.0841
     18 C          63.5996   91.1411   16.1943 C.ar    1  UNL1        0.0192
     19 C          64.2316   91.9290   17.3033 C.ar    1  UNL1        0.0029
     20 C          65.5831   92.5492   17.1071 C.ar    1  UNL1        0.0184
     21 C          66.3028   92.3816   15.8017 C.ar    1  UNL1        0.1072
     22 C          65.6709   91.5937   14.6927 C.ar    1  UNL1        0.0375
     23 S          67.6544   93.0017   15.6054 S.O2    1  UNL1        0.0105
     24 C          69.0060   93.6218   15.4091 C.3     1  UNL1        0.1816
     25 O          67.0752   93.9434   14.5916 O.2     1  UNL1       -0.1686
     26 O          68.2337   92.0600   16.6193 O.2     1  UNL1       -0.1686
     27 C          60.3230   90.0147   10.1401 C.3     1  UNL1        0.0240
     28 C          60.2207   90.0993    8.6459 C.3     1  UNL1        0.0021
     29 C          59.3678   90.7858   11.0020 C.3     1  UNL1        0.0021
@<TRIPOS>BOND
     1    15    16    1
     2    16     9    1
     3     9    10   ar
     4    10    11   ar
     5    11     1    1
     6     1     2    1
     7     2     3    1
     8     3     4   ar
     9     4     5   ar
    10     5    17    1
    11    17    18   ar
    12    18    19   ar
    13    19    20   ar
    14    20    21   ar
    15    21    23    1
    16    23    24    1
    17    23    25    2
    18    23    26    2
    19    21    22   ar
    20     5     6   ar
    21     6     7   ar
    22     7     8    1
    23     8    27    1
    24    27    28    1
    25    27    29    1
    26    11    12   ar
    27    12    13   ar
    28    13    14   ar
    29    14     9   ar
    30     8     1    1
    31     7     3   ar
    32    22    17   ar
@<TRIPOS>MOLECULE
*****
 29 32 0 0 0
SMALL
GASTEIGER

@<TRIPOS>ATOM
      1 N          64.1711   88.8012   14.1884 N.pl3   1  UNL1       -0.2996
      2 C          65.3026   89.6642   14.6627 C.3     1  UNL1        0.1208
      3 C          65.3662   90.8733   13.7772 C.ar    1  UNL1        0.0336
      4 C          66.1049   92.1538   13.5231 C.ar    1  UNL1        0.0990
      5 N          65.4692   92.8296   12.3445 N.ar    1  UNL1       -0.2287
      6 N          64.3376   91.9667   11.8701 N.ar    1  UNL1       -0.1681
      7 C          64.2740   90.7576   12.7556 C.ar    1  UNL1        0.0960
      8 C          63.5353   89.4771   13.0097 C.3     1  UNL1        0.1147
      9 C          63.2923   84.9471   14.5382 C.ar    1  UNL1        0.2262
     10 C          63.7141   86.2559   13.9391 C.ar    1  UNL1        0.0722
     11 C          63.7493   87.4924   14.7875 C.ar    1  UNL1        0.0546
     12 C          63.3628   87.4200   16.2350 C.ar    1  UNL1        0.0354
     13 C          62.9410   86.1112   16.8342 C.ar    1  UNL1        0.1033
     14 N          62.9058   84.8747   15.9858 N.ar    1  UNL1       -0.2101
     15 C          64.0643   82.5086   14.0821 C.3     1  UNL1        0.2542
     16 O          63.2571   83.7105   13.6898 O.3     1  UNL1       -0.4561
     17 C          65.8909   94.1385   11.7453 C.ar    1  UNL1        0.0841
     18 C          66.2775   95.2814   12.6365 C.ar    1  UNL1        0.0192
     19 C          66.6992   96.5902   12.0373 C.ar    1  UNL1        0.0029
     20 C          66.7344   96.7562   10.5469 C.ar    1  UNL1        0.0184
     21 C          66.3478   95.6133    9.6557 C.ar    1  UNL1        0.1072
     22 C          65.9261   94.3044   10.2550 C.ar    1  UNL1        0.0375
     23 S          66.3830   95.7792    8.1654 S.O2    1  UNL1        0.0105
     24 C          66.4182   95.9450    6.6750 C.3     1  UNL1        0.1816
     25 O          65.3411   96.8540    8.2603 O.2     1  UNL1       -0.1686
     26 O          67.4249   94.7042    8.0704 O.2     1  UNL1       -0.1686
     27 C          62.3662   88.9626   12.2233 C.3     1  UNL1        0.0240
     28 C          61.0265   89.6251   12.3510 C.3     1  UNL1        0.0021
     29 C          62.5368   87.7857   11.3091 C.3     1  UNL1        0.0021
@<TRIPOS>BOND
     1    15    16    1
     2    16     9    1
     3     9    10   ar
     4    10    11   ar
     5    11     1    1
     6     1     2    1
     7     2     3    1
     8     3     4   ar
     9     4     5   ar
    10     5    17    1
    11    17    18   ar
    12    18    19   ar
    13    19    20   ar
    14    20    21   ar
    15    21    23    1
    16    23    24    1
    17    23    25    2
    18    23    26    2
    19    21    22   ar
    20     5     6   ar
    21     6     7   ar
    22     7     8    1
    23     8    27    1
    24    27    28    1
    25    27    29    1
    26    11    12   ar
    27    12    13   ar
    28    13    14   ar
    29    14     9   ar
    30     8     1    1
    31     7     3   ar
    32    22    17   ar
@<TRIPOS>MOLECULE
*****
 29 32 0 0 0
SMALL
GASTEIGER

@<TRIPOS>ATOM
      1 N          60.2955   88.4015    8.0689 N.pl3   1  UNL1       -0.2996
      2 C          60.4564   86.9168    7.9281 C.3     1  UNL1        0.1208
      3 C          61.1080   86.4006    9.1767 C.ar    1  UNL1        0.0336
      4 C          61.6101   85.1640    9.8613 C.ar    1  UNL1        0.0990
      5 N          62.1623   85.5655   11.1969 N.ar    1  UNL1       -0.2287
      6 N          62.0014   87.0501   11.3378 N.ar    1  UNL1       -0.1681
      7 C          61.3498   87.5663   10.0892 C.ar    1  UNL1        0.0960
      8 C          60.8477   88.8029    9.4046 C.3     1  UNL1        0.1147
      9 C          59.9670   91.0821    5.1610 C.ar    1  UNL1        0.2262
     10 C          60.5735   90.1606    6.1773 C.ar    1  UNL1        0.0722
     11 C          59.6890   89.3229    7.0526 C.ar    1  UNL1        0.0546
     12 C          58.1981   89.4068    6.9115 C.ar    1  UNL1        0.0354
     13 C          57.5914   90.3283    5.8951 C.ar    1  UNL1        0.1033
     14 N          58.4759   91.1659    5.0199 N.ar    1  UNL1       -0.2101
     15 C          60.2564   92.7203    3.1654 C.3     1  UNL1        0.2542
     16 O          60.8514   91.9198    4.2857 O.3     1  UNL1       -0.4561
     17 C          62.7688   84.6440   12.2133 C.ar    1  UNL1        0.0841
     18 C          63.6486   85.1959   13.2956 C.ar    1  UNL1        0.0192
     19 C          64.2552   84.2744   14.3119 C.ar    1  UNL1        0.0029
     20 C          63.9819   82.8010   14.2461 C.ar    1  UNL1        0.0184
     21 C          63.1020   82.2490   13.1638 C.ar    1  UNL1        0.1072
     22 C          62.4955   83.1706   12.1475 C.ar    1  UNL1        0.0375
     23 S          62.8287   80.7757   13.0979 S.O2    1  UNL1        0.0105
     24 C          62.5554   79.3023   13.0319 C.3     1  UNL1        0.1816
     25 O          62.7879   80.7161   14.5961 O.2     1  UNL1       -0.1686
     26 O          62.8695   80.8352   11.5996 O.2     1  UNL1       -0.1686
     27 C          60.8903   90.1963    9.9584 C.3     1  UNL1        0.0240
     28 C          59.6824   90.7706   10.6376 C.3     1  UNL1        0.0021
     29 C          62.1406   91.0153    9.8331 C.3     1  UNL1        0.0021
@<TRIPOS>BOND
     1    15    16    1
     2    16     9    1
     3     9    10   ar
     4    10    11   ar
     5    11     1    1
     6     1     2    1
     7     2     3    1
     8     3     4   ar
     9     4     5   ar
    10     5    17    1
    11    17    18   ar
    12    18    19   ar
    13    19    20   ar
    14    20    21   ar
    15    21    23    1
    16    23    24    1
    17    23    25    2
    18    23    26    2
    19    21    22   ar
    20     5     6   ar
    21     6     7   ar
    22     7     8    1
    23     8    27    1
    24    27    28    1
    25    27    29    1
    26    11    12   ar
    27    12    13   ar
    28    13    14   ar
    29    14     9   ar
    30     8     1    1
    31     7     3   ar
    32    22    17   ar
