@<TRIPOS>MOLECULE
*****
 28 31 0 0 0
SMALL
GASTEIGER

@<TRIPOS>ATOM
      1 C          61.0438   88.5645    9.0996 C.ar    1  UNL1        0.0504
      2 C          61.8610   89.0009   10.2793 C.ar    1  UNL1        0.0160
      3 C          62.3583   87.9847   11.2642 C.ar    1  UNL1        0.0196
      4 C          62.0385   86.5322   11.0693 C.ar    1  UNL1        0.1057
      5 C          61.2213   86.0959    9.8896 C.ar    1  UNL1        0.0196
      6 C          60.7240   87.1120    8.9047 C.ar    1  UNL1        0.0160
      7 O          59.0146   87.7825    7.0329 O.2     1  UNL1       -0.2748
      8 C          59.5319   89.1897    7.0813 C.2     1  UNL1        0.2260
      9 N          60.5464   89.5807    8.1146 N.am    1  UNL1       -0.2839
     10 H          60.8859   90.5043    8.1464 H       1  UNL1        0.1549
     11 C          59.0345   90.2059    6.0964 C.3     1  UNL1        0.0812
     12 C          57.9081   91.0058    5.5121 C.3     1  UNL1        0.0143
     13 C          59.2993   91.1660    4.9748 C.3     1  UNL1        0.0330
     14 C          60.2555   91.8128    4.0170 C.ar    1  UNL1       -0.0029
     15 C          61.6777   91.3417    3.9441 C.ar    1  UNL1       -0.0011
     16 C          62.6339   91.9884    2.9863 C.ar    1  UNL1        0.0204
     17 C          62.1678   93.1064    2.1013 C.ar    1  UNL1        0.0989
     18 N          60.7456   93.5775    2.1742 N.ar    1  UNL1       -0.2426
     19 C          59.7894   92.9306    3.1321 C.ar    1  UNL1        0.0946
     20 S          62.5359   85.5160   12.0543 S.O2    1  UNL1        0.0072
     21 O          63.1183   86.6145   12.8934 O.2     1  UNL1       -0.1687
     22 O          61.9534   84.4176   11.2152 O.2     1  UNL1       -0.1687
     23 C          63.0333   84.4999   13.0392 C.3     1  UNL1        0.1388
     24 C          63.7391   84.9461   14.2853 C.3     1  UNL1        0.0561
     25 C          64.2365   83.9300   15.2702 C.3     1  UNL1        0.1439
     26 O          64.0281   82.4677   15.0091 O.3     1  UNL1       -0.3537
     27 C          63.3223   82.0215   13.7631 C.3     1  UNL1        0.1439
     28 C          62.8248   83.0376   12.7781 C.3     1  UNL1        0.0561
@<TRIPOS>BOND
     1     7     8    2
     2     8     9   am
     3     9     1    1
     4     1     2   ar
     5     2     3   ar
     6     3     4   ar
     7     4    20    1
     8    20    21    2
     9    20    22    2
    10    20    23    1
    11    23    24    1
    12    24    25    1
    13    25    26    1
    14    26    27    1
    15    27    28    1
    16     4     5   ar
    17     5     6   ar
    18    11     8    1
    19    11    12    1
    20    12    13    1
    21    13    14    1
    22    14    15   ar
    23    15    16   ar
    24    16    17   ar
    25    17    18   ar
    26    18    19   ar
    27     6     1   ar
    28    13    11    1
    29    19    14   ar
    30    28    23    1
    31     9    10    1
@<TRIPOS>MOLECULE
*****
 28 31 0 0 0
SMALL
GASTEIGER

@<TRIPOS>ATOM
      1 C          64.5604   89.6529   14.2932 C.ar    1  UNL1        0.0504
      2 C          65.7755   90.4455   14.6742 C.ar    1  UNL1        0.0160
      3 C          66.2096   91.6058   13.8285 C.ar    1  UNL1        0.0196
      4 C          65.4286   91.9735   12.6018 C.ar    1  UNL1        0.1057
      5 C          64.2135   91.1809   12.2208 C.ar    1  UNL1        0.0196
      6 C          63.7794   90.0206   13.0665 C.ar    1  UNL1        0.0160
      7 O          63.8846   87.0286   13.0062 O.2     1  UNL1       -0.2748
      8 C          63.7883   87.1804   14.4954 C.2     1  UNL1        0.2260
      9 N          64.1262   88.4925   15.1389 N.am    1  UNL1       -0.2839
     10 H          64.0631   88.5922   16.1163 H       1  UNL1        0.1549
     11 C          63.3542   86.0200   15.3411 C.3     1  UNL1        0.0812
     12 C          62.9335   85.4670   16.6704 C.3     1  UNL1        0.0143
     13 C          63.0228   84.5634   15.4765 C.3     1  UNL1        0.0330
     14 C          62.8831   83.2007   14.8654 C.ar    1  UNL1       -0.0029
     15 C          61.5212   82.6052   14.6637 C.ar    1  UNL1       -0.0011
     16 C          61.3815   81.2425   14.0526 C.ar    1  UNL1        0.0204
     17 C          62.6037   80.4752   13.6431 C.ar    1  UNL1        0.0989
     18 N          63.9656   81.0708   13.8447 N.ar    1  UNL1       -0.2426
     19 C          64.1053   82.4335   14.4559 C.ar    1  UNL1        0.0946
     20 S          65.8628   93.1338   11.7561 S.O2    1  UNL1        0.0072
     21 O          66.7629   93.6021   12.8608 O.2     1  UNL1       -0.1687
     22 O          64.9627   92.6655   10.6514 O.2     1  UNL1       -0.1687
     23 C          66.2970   94.2941   10.9105 C.3     1  UNL1        0.1388
     24 C          65.9633   95.6949   11.3308 C.3     1  UNL1        0.0561
     25 C          66.3975   96.8552   10.4852 C.3     1  UNL1        0.1439
     26 O          67.1653   96.6149    9.2192 O.3     1  UNL1       -0.3537
     27 C          67.4990   95.2142    8.7989 C.3     1  UNL1        0.1439
     28 C          67.0648   94.0538    9.6445 C.3     1  UNL1        0.0561
@<TRIPOS>BOND
     1     7     8    2
     2     8     9   am
     3     9     1    1
     4     1     2   ar
     5     2     3   ar
     6     3     4   ar
     7     4    20    1
     8    20    21    2
     9    20    22    2
    10    20    23    1
    11    23    24    1
    12    24    25    1
    13    25    26    1
    14    26    27    1
    15    27    28    1
    16     4     5   ar
    17     5     6   ar
    18    11     8    1
    19    11    12    1
    20    12    13    1
    21    13    14    1
    22    14    15   ar
    23    15    16   ar
    24    16    17   ar
    25    17    18   ar
    26    18    19   ar
    27     6     1   ar
    28    13    11    1
    29    19    14   ar
    30    28    23    1
    31     9    10    1
@<TRIPOS>MOLECULE
*****
 28 31 0 0 0
SMALL
GASTEIGER

@<TRIPOS>ATOM
      1 C          62.5819   90.8249   10.7158 C.ar    1  UNL1        0.0504
      2 C          62.5150   90.3947   12.1512 C.ar    1  UNL1        0.0160
      3 C          63.6011   90.7944   13.1054 C.ar    1  UNL1        0.0196
      4 C          64.7542   91.6244   12.6242 C.ar    1  UNL1        0.1057
      5 C          64.8211   92.0546   11.1888 C.ar    1  UNL1        0.0196
      6 C          63.7350   91.6549   10.2346 C.ar    1  UNL1        0.0160
      7 O          62.2781   87.9520    9.9070 O.2     1  UNL1       -0.2748
      8 C          61.3439   88.9887    9.3572 C.2     1  UNL1        0.2260
      9 N          61.4958   90.4252    9.7616 N.am    1  UNL1       -0.2839
     10 H          60.8826   91.1056    9.4007 H       1  UNL1        0.1549
     11 C          60.2577   88.5890    8.4029 C.3     1  UNL1        0.0812
     12 C          59.3059   87.5558    7.8772 C.3     1  UNL1        0.0143
     13 C          59.3284   88.9298    7.2760 C.3     1  UNL1        0.0330
     14 C          58.8048   89.9199    6.2782 C.ar    1  UNL1       -0.0029
     15 C          59.7602   90.7424    5.4654 C.ar    1  UNL1       -0.0011
     16 C          59.2366   91.7324    4.4677 C.ar    1  UNL1        0.0204
     17 C          57.7575   91.9001    4.2827 C.ar    1  UNL1        0.0989
     18 N          56.8021   91.0777    5.0955 N.ar    1  UNL1       -0.2426
     19 C          57.3257   90.0875    6.0933 C.ar    1  UNL1        0.0946
     20 S          65.8403   92.0241   13.5784 S.O2    1  UNL1        0.0072
     21 O          66.7273   92.3764   12.4212 O.2     1  UNL1       -0.1687
     22 O          64.9534   91.6719   14.7356 O.2     1  UNL1       -0.1687
     23 C          66.9265   92.4239   14.5326 C.3     1  UNL1        0.1388
     24 C          67.6458   91.3775   15.3312 C.3     1  UNL1        0.0561
     25 C          68.7319   91.7772   16.2854 C.3     1  UNL1        0.1439
     26 O          69.0988   93.2233   16.4410 O.3     1  UNL1       -0.3537
     27 C          68.3795   94.2697   15.6425 C.3     1  UNL1        0.1439
     28 C          67.2933   93.8700   14.6882 C.3     1  UNL1        0.0561
@<TRIPOS>BOND
     1     7     8    2
     2     8     9   am
     3     9     1    1
     4     1     2   ar
     5     2     3   ar
     6     3     4   ar
     7     4    20    1
     8    20    21    2
     9    20    22    2
    10    20    23    1
    11    23    24    1
    12    24    25    1
    13    25    26    1
    14    26    27    1
    15    27    28    1
    16     4     5   ar
    17     5     6   ar
    18    11     8    1
    19    11    12    1
    20    12    13    1
    21    13    14    1
    22    14    15   ar
    23    15    16   ar
    24    16    17   ar
    25    17    18   ar
    26    18    19   ar
    27     6     1   ar
    28    13    11    1
    29    19    14   ar
    30    28    23    1
    31     9    10    1
@<TRIPOS>MOLECULE
*****
 28 31 0 0 0
SMALL
GASTEIGER

@<TRIPOS>ATOM
      1 C          59.6600   88.5528    7.6504 C.ar    1  UNL1        0.0504
      2 C          59.6419   87.0769    7.3837 C.ar    1  UNL1        0.0160
      3 C          60.3941   86.1427    8.2846 C.ar    1  UNL1        0.0196
      4 C          61.1644   86.6846    9.4521 C.ar    1  UNL1        0.1057
      5 C          61.1825   88.1605    9.7188 C.ar    1  UNL1        0.0196
      6 C          60.4303   89.0947    8.8179 C.ar    1  UNL1        0.0160
      7 O          61.1430   90.2292    5.6528 O.2     1  UNL1       -0.2748
      8 C          59.6493   90.3252    5.7507 C.2     1  UNL1        0.2260
      9 N          58.9078   89.4871    6.7495 N.am    1  UNL1       -0.2839
     10 H          57.9274   89.5501    6.8138 H       1  UNL1        0.1549
     11 C          58.8971   91.2594    4.8499 C.3     1  UNL1        0.0812
     12 C          57.6270   91.9670    4.4812 C.3     1  UNL1        0.0143
     13 C          58.8645   92.1699    3.6582 C.3     1  UNL1        0.0330
     14 C          59.5601   92.8127    2.4951 C.ar    1  UNL1       -0.0029
     15 C          60.9971   93.2258    2.6156 C.ar    1  UNL1       -0.0011
     16 C          61.6927   93.8686    1.4525 C.ar    1  UNL1        0.0204
     17 C          60.9514   94.0983    0.1688 C.ar    1  UNL1        0.0989
     18 N          59.5145   93.6851    0.0483 N.ar    1  UNL1       -0.2426
     19 C          58.8188   93.0423    1.2115 C.ar    1  UNL1        0.0946
     20 S          61.9166   85.7503   10.3530 S.O2    1  UNL1        0.0072
     21 O          62.6549   85.2021    9.1679 O.2     1  UNL1       -0.1687
     22 O          61.1782   86.2985   11.5380 O.2     1  UNL1       -0.1687
     23 C          62.6687   84.8161   11.2538 C.3     1  UNL1        0.1388
     24 C          62.6052   84.9954   12.7417 C.3     1  UNL1        0.0561
     25 C          63.3574   84.0612   13.6425 C.3     1  UNL1        0.1439
     26 O          64.1731   82.9477   13.0554 O.3     1  UNL1       -0.3537
     27 C          64.2367   82.7684   11.5676 C.3     1  UNL1        0.1439
     28 C          63.4845   83.7026   10.6667 C.3     1  UNL1        0.0561
@<TRIPOS>BOND
     1     7     8    2
     2     8     9   am
     3     9     1    1
     4     1     2   ar
     5     2     3   ar
     6     3     4   ar
     7     4    20    1
     8    20    21    2
     9    20    22    2
    10    20    23    1
    11    23    24    1
    12    24    25    1
    13    25    26    1
    14    26    27    1
    15    27    28    1
    16     4     5   ar
    17     5     6   ar
    18    11     8    1
    19    11    12    1
    20    12    13    1
    21    13    14    1
    22    14    15   ar
    23    15    16   ar
    24    16    17   ar
    25    17    18   ar
    26    18    19   ar
    27     6     1   ar
    28    13    11    1
    29    19    14   ar
    30    28    23    1
    31     9    10    1
@<TRIPOS>MOLECULE
*****
 28 31 0 0 0
SMALL
GASTEIGER

@<TRIPOS>ATOM
      1 C          60.6690   87.1437    8.4645 C.ar    1  UNL1        0.0504
      2 C          61.6547   86.0485    8.1837 C.ar    1  UNL1        0.0160
      3 C          62.2625   85.2776    9.3178 C.ar    1  UNL1        0.0196
      4 C          61.8845   85.6018   10.7327 C.ar    1  UNL1        0.1057
      5 C          60.8988   86.6970   11.0135 C.ar    1  UNL1        0.0196
      6 C          60.2911   87.4679    9.8794 C.ar    1  UNL1        0.0160
      7 O          60.1051   90.0739    8.7747 O.2     1  UNL1       -0.2748
      8 C          59.7793   89.3798    7.4855 C.2     1  UNL1        0.2260
      9 N          60.0613   87.9148    7.3304 N.am    1  UNL1       -0.2839
     10 H          59.8474   87.4592    6.4842 H       1  UNL1        0.1549
     11 C          59.1715   90.1509    6.3514 C.3     1  UNL1        0.0812
     12 C          57.9598   90.6298    5.6082 C.3     1  UNL1        0.0143
     13 C          59.3306   91.0074    5.1303 C.3     1  UNL1        0.0330
     14 C          60.2138   91.7199    4.1494 C.ar    1  UNL1       -0.0029
     15 C          59.6381   92.7718    3.2482 C.ar    1  UNL1       -0.0011
     16 C          60.5213   93.4843    2.2673 C.ar    1  UNL1        0.0204
     17 C          61.9803   93.1450    2.1876 C.ar    1  UNL1        0.0989
     18 N          62.5560   92.0931    3.0888 N.ar    1  UNL1       -0.2426
     19 C          61.6727   91.3805    4.0697 C.ar    1  UNL1        0.0946
     20 S          62.4922   84.8307   11.8668 S.O2    1  UNL1        0.0072
     21 O          62.3702   83.5648   11.0715 O.2     1  UNL1       -0.1687
     22 O          62.6143   86.0966   12.6621 O.2     1  UNL1       -0.1687
     23 C          63.1000   84.0597   13.0009 C.3     1  UNL1        0.1388
     24 C          62.9607   82.5670   13.0527 C.3     1  UNL1        0.0561
     25 C          63.5684   81.7960   14.1867 C.3     1  UNL1        0.1439
     26 O          64.3155   82.5175   15.2690 O.3     1  UNL1       -0.3537
     27 C          64.4548   84.0101   15.2172 C.3     1  UNL1        0.1439
     28 C          63.8470   84.7812   14.0831 C.3     1  UNL1        0.0561
@<TRIPOS>BOND
     1     7     8    2
     2     8     9   am
     3     9     1    1
     4     1     2   ar
     5     2     3   ar
     6     3     4   ar
     7     4    20    1
     8    20    21    2
     9    20    22    2
    10    20    23    1
    11    23    24    1
    12    24    25    1
    13    25    26    1
    14    26    27    1
    15    27    28    1
    16     4     5   ar
    17     5     6   ar
    18    11     8    1
    19    11    12    1
    20    12    13    1
    21    13    14    1
    22    14    15   ar
    23    15    16   ar
    24    16    17   ar
    25    17    18   ar
    26    18    19   ar
    27     6     1   ar
    28    13    11    1
    29    19    14   ar
    30    28    23    1
    31     9    10    1
@<TRIPOS>MOLECULE
*****
 28 31 0 0 0
SMALL
GASTEIGER

@<TRIPOS>ATOM
      1 C          64.0339   86.1992   14.2757 C.ar    1  UNL1        0.0504
      2 C          64.6441   84.9558   14.8515 C.ar    1  UNL1        0.0160
      3 C          64.4006   83.6284   14.1967 C.ar    1  UNL1        0.0196
      4 C          63.5469   83.5444   12.9662 C.ar    1  UNL1        0.1057
      5 C          62.9367   84.7879   12.3904 C.ar    1  UNL1        0.0196
      6 C          63.1802   86.1152   13.0452 C.ar    1  UNL1        0.0160
      7 O          63.5496   88.7360   12.7493 O.2     1  UNL1       -0.2748
      8 C          64.0352   88.7950   14.1673 C.2     1  UNL1        0.2260
      9 N          64.2774   87.5266   14.9305 N.am    1  UNL1       -0.2839
     10 H          64.5961   87.5654   15.8612 H       1  UNL1        0.1549
     11 C          64.2787   90.1225   14.8220 C.3     1  UNL1        0.0812
     12 C          63.7753   91.2905   15.6171 C.3     1  UNL1        0.0143
     13 C          65.2038   91.2536   15.1610 C.3     1  UNL1        0.0330
     14 C          66.5626   91.8852   15.0933 C.ar    1  UNL1       -0.0029
     15 C          67.0517   92.7357   16.2280 C.ar    1  UNL1       -0.0011
     16 C          68.4105   93.3673   16.1603 C.ar    1  UNL1        0.0204
     17 C          69.2803   93.1485   14.9579 C.ar    1  UNL1        0.0989
     18 N          68.7912   92.2980   13.8233 N.ar    1  UNL1       -0.2426
     19 C          67.4323   91.6663   13.8910 C.ar    1  UNL1        0.0946
     20 S          63.3034   82.2170   12.3114 S.O2    1  UNL1        0.0072
     21 O          64.5143   82.4200   11.4498 O.2     1  UNL1       -0.1687
     22 O          62.0925   82.0140   13.1731 O.2     1  UNL1       -0.1687
     23 C          63.0600   80.8896   11.6567 C.3     1  UNL1        0.1388
     24 C          63.2104   80.7473   10.1710 C.3     1  UNL1        0.0561
     25 C          62.9669   79.4199    9.5163 C.3     1  UNL1        0.1439
     26 O          62.5731   78.2348   10.3471 O.3     1  UNL1       -0.3537
     27 C          62.4227   78.3770   11.8327 C.3     1  UNL1        0.1439
     28 C          62.6661   79.7045   12.4876 C.3     1  UNL1        0.0561
@<TRIPOS>BOND
     1     7     8    2
     2     8     9   am
     3     9     1    1
     4     1     2   ar
     5     2     3   ar
     6     3     4   ar
     7     4    20    1
     8    20    21    2
     9    20    22    2
    10    20    23    1
    11    23    24    1
    12    24    25    1
    13    25    26    1
    14    26    27    1
    15    27    28    1
    16     4     5   ar
    17     5     6   ar
    18    11     8    1
    19    11    12    1
    20    12    13    1
    21    13    14    1
    22    14    15   ar
    23    15    16   ar
    24    16    17   ar
    25    17    18   ar
    26    18    19   ar
    27     6     1   ar
    28    13    11    1
    29    19    14   ar
    30    28    23    1
    31     9    10    1
@<TRIPOS>MOLECULE
*****
 28 31 0 0 0
SMALL
GASTEIGER

@<TRIPOS>ATOM
      1 C          64.0439   89.1033   13.3150 C.ar    1  UNL1        0.0504
      2 C          63.2898   88.5038   12.1653 C.ar    1  UNL1        0.0160
      3 C          62.9584   87.0409   12.1671 C.ar    1  UNL1        0.0196
      4 C          63.3810   86.1775   13.3186 C.ar    1  UNL1        0.1057
      5 C          64.1351   86.7771   14.4683 C.ar    1  UNL1        0.0196
      6 C          64.4665   88.2400   14.4665 C.ar    1  UNL1        0.0160
      7 O          66.6188   90.0595   14.5214 O.2     1  UNL1       -0.2748
      8 C          65.6627   91.0444   13.9164 C.2     1  UNL1        0.2260
      9 N          64.3753   90.5663   13.3132 N.am    1  UNL1       -0.2839
     10 H          63.7478   91.2127   12.9162 H       1  UNL1        0.1549
     11 C          65.9942   92.5073   13.9147 C.3     1  UNL1        0.0812
     12 C          66.3061   93.7695   14.6627 C.3     1  UNL1        0.0143
     13 C          66.2564   93.7790   13.1636 C.3     1  UNL1        0.0330
     14 C          66.3790   94.5186   11.8644 C.ar    1  UNL1       -0.0029
     15 C          66.6894   93.7706   10.6019 C.ar    1  UNL1       -0.0011
     16 C          66.8120   94.5102    9.3027 C.ar    1  UNL1        0.0204
     17 C          66.6244   95.9980    9.2661 C.ar    1  UNL1        0.0989
     18 N          66.3140   96.7461   10.5286 N.ar    1  UNL1       -0.2426
     19 C          66.1914   96.0064   11.8278 C.ar    1  UNL1        0.0946
     20 S          63.0496   84.7146   13.3204 S.O2    1  UNL1        0.0072
     21 O          63.7758   84.5485   12.0185 O.2     1  UNL1       -0.1687
     22 O          62.3233   84.8806   14.6223 O.2     1  UNL1       -0.1687
     23 C          62.7182   83.2517   13.3221 C.3     1  UNL1        0.1388
     24 C          61.9162   82.6656   14.4462 C.3     1  UNL1        0.0561
     25 C          61.5848   81.2027   14.4480 C.3     1  UNL1        0.1439
     26 O          62.0553   80.3258   13.3256 O.3     1  UNL1       -0.3537
     27 C          62.8572   80.9118   12.2016 C.3     1  UNL1        0.1439
     28 C          63.1886   82.3747   12.1998 C.3     1  UNL1        0.0561
@<TRIPOS>BOND
     1     7     8    2
     2     8     9   am
     3     9     1    1
     4     1     2   ar
     5     2     3   ar
     6     3     4   ar
     7     4    20    1
     8    20    21    2
     9    20    22    2
    10    20    23    1
    11    23    24    1
    12    24    25    1
    13    25    26    1
    14    26    27    1
    15    27    28    1
    16     4     5   ar
    17     5     6   ar
    18    11     8    1
    19    11    12    1
    20    12    13    1
    21    13    14    1
    22    14    15   ar
    23    15    16   ar
    24    16    17   ar
    25    17    18   ar
    26    18    19   ar
    27     6     1   ar
    28    13    11    1
    29    19    14   ar
    30    28    23    1
    31     9    10    1
@<TRIPOS>MOLECULE
*****
 28 31 0 0 0
SMALL
GASTEIGER

@<TRIPOS>ATOM
      1 C          60.3953   92.9434    2.0200 C.ar    1  UNL1        0.0504
      2 C          60.8513   92.1763    0.8143 C.ar    1  UNL1        0.0160
      3 C          61.7747   92.8185   -0.1781 C.ar    1  UNL1        0.0196
      4 C          62.2421   94.2278    0.0353 C.ar    1  UNL1        0.1057
      5 C          61.7862   94.9948    1.2409 C.ar    1  UNL1        0.0196
      6 C          60.8628   94.3526    2.2333 C.ar    1  UNL1        0.0160
      7 O          61.5187   91.4830    4.3876 O.2     1  UNL1       -0.2748
      8 C          60.0336   91.5710    4.1962 C.2     1  UNL1        0.2260
      9 N          59.4719   92.3012    3.0125 N.am    1  UNL1       -0.2839
     10 H          58.4971   92.3589    2.8869 H       1  UNL1        0.1549
     11 C          59.1101   90.9288    5.1887 C.3     1  UNL1        0.0812
     12 C          57.7354   90.7623    5.7652 C.3     1  UNL1        0.0143
     13 C          58.8854   89.9830    6.3310 C.3     1  UNL1        0.0330
     14 C          59.4196   88.9870    7.3172 C.ar    1  UNL1       -0.0029
     15 C          59.2345   87.5183    7.0749 C.ar    1  UNL1       -0.0011
     16 C          59.7687   86.5223    8.0611 C.ar    1  UNL1        0.0204
     17 C          60.4881   86.9950    9.2896 C.ar    1  UNL1        0.0989
     18 N          60.6733   88.4637    9.5318 N.ar    1  UNL1       -0.2426
     19 C          60.1390   89.4597    8.5456 C.ar    1  UNL1        0.0946
     20 S          63.1656   94.8700   -0.9572 S.O2    1  UNL1        0.0072
     21 O          62.6538   93.9520   -2.0274 O.2     1  UNL1       -0.1687
     22 O          63.6773   95.7880    0.1130 O.2     1  UNL1       -0.1687
     23 C          64.0890   95.5121   -1.9496 C.3     1  UNL1        0.1388
     24 C          65.3276   96.2139   -1.4768 C.3     1  UNL1        0.0561
     25 C          66.2509   96.8560   -2.4692 C.3     1  UNL1        0.1439
     26 O          65.9358   96.7965   -3.9345 O.3     1  UNL1       -0.3537
     27 C          64.6973   96.0948   -4.4074 C.3     1  UNL1        0.1439
     28 C          63.7738   95.4526   -3.4149 C.3     1  UNL1        0.0561
@<TRIPOS>BOND
     1     7     8    2
     2     8     9   am
     3     9     1    1
     4     1     2   ar
     5     2     3   ar
     6     3     4   ar
     7     4    20    1
     8    20    21    2
     9    20    22    2
    10    20    23    1
    11    23    24    1
    12    24    25    1
    13    25    26    1
    14    26    27    1
    15    27    28    1
    16     4     5   ar
    17     5     6   ar
    18    11     8    1
    19    11    12    1
    20    12    13    1
    21    13    14    1
    22    14    15   ar
    23    15    16   ar
    24    16    17   ar
    25    17    18   ar
    26    18    19   ar
    27     6     1   ar
    28    13    11    1
    29    19    14   ar
    30    28    23    1
    31     9    10    1
@<TRIPOS>MOLECULE
*****
 28 31 0 0 0
SMALL
GASTEIGER

@<TRIPOS>ATOM
      1 C          64.0481   86.0799   13.9534 C.ar    1  UNL1        0.0504
      2 C          64.8664   84.9023   14.3933 C.ar    1  UNL1        0.0160
      3 C          64.6036   83.5461   13.8088 C.ar    1  UNL1        0.0196
      4 C          63.5226   83.3676   12.7843 C.ar    1  UNL1        0.1057
      5 C          62.7044   84.5453   12.3443 C.ar    1  UNL1        0.0196
      6 C          62.9672   85.9014   12.9289 C.ar    1  UNL1        0.0160
      7 O          63.4197   88.5457   12.3643 O.2     1  UNL1       -0.2748
      8 C          63.9967   88.6690   13.7434 C.2     1  UNL1        0.2260
      9 N          64.3109   87.4362   14.5379 N.am    1  UNL1       -0.2839
     10 H          64.6896   87.5171   15.4431 H       1  UNL1        0.1549
     11 C          64.2595   90.0253   14.3280 C.3     1  UNL1        0.0812
     12 C          64.2276   90.9642   15.4973 C.3     1  UNL1        0.0143
     13 C          64.7464   91.4353   14.1711 C.3     1  UNL1        0.0330
     14 C          65.3271   92.5214   13.3149 C.ar    1  UNL1       -0.0029
     15 C          65.0980   92.5111   11.8325 C.ar    1  UNL1       -0.0011
     16 C          65.6787   93.5971   10.9763 C.ar    1  UNL1        0.0204
     17 C          66.4886   94.6936   11.6024 C.ar    1  UNL1        0.0989
     18 N          66.7177   94.7039   13.0848 N.ar    1  UNL1       -0.2426
     19 C          66.1370   93.6178   13.9410 C.ar    1  UNL1        0.0946
     20 S          63.2598   82.0114   12.1997 S.O2    1  UNL1        0.0072
     21 O          62.3435   81.6955   13.3445 O.2     1  UNL1       -0.1687
     22 O          64.1761   82.3272   11.0549 O.2     1  UNL1       -0.1687
     23 C          62.9970   80.6552   11.6152 C.3     1  UNL1        0.1388
     24 C          62.6178   79.5132   12.5108 C.3     1  UNL1        0.0561
     25 C          62.3550   78.1570   11.9263 C.3     1  UNL1        0.1439
     26 O          62.4714   77.9428   10.4462 O.3     1  UNL1       -0.3537
     27 C          62.8506   79.0847    9.5507 C.3     1  UNL1        0.1439
     28 C          63.1135   80.4410   10.1351 C.3     1  UNL1        0.0561
@<TRIPOS>BOND
     1     7     8    2
     2     8     9   am
     3     9     1    1
     4     1     2   ar
     5     2     3   ar
     6     3     4   ar
     7     4    20    1
     8    20    21    2
     9    20    22    2
    10    20    23    1
    11    23    24    1
    12    24    25    1
    13    25    26    1
    14    26    27    1
    15    27    28    1
    16     4     5   ar
    17     5     6   ar
    18    11     8    1
    19    11    12    1
    20    12    13    1
    21    13    14    1
    22    14    15   ar
    23    15    16   ar
    24    16    17   ar
    25    17    18   ar
    26    18    19   ar
    27     6     1   ar
    28    13    11    1
    29    19    14   ar
    30    28    23    1
    31     9    10    1
