@<TRIPOS>MOLECULE
*****
 20 22 0 0 0
SMALL
GASTEIGER

@<TRIPOS>ATOM
      1 O          66.9674   92.5862   16.3987 O.3     1  UNL1       -0.5055
      2 C          66.4149   92.5870   15.0042 C.ar    1  UNL1        0.1337
      3 C          66.8932   93.6018   14.0085 C.ar    1  UNL1        0.0366
      4 C          66.3406   93.6025   12.6140 C.ar    1  UNL1        0.0031
      5 C          65.3098   92.5885   12.2151 C.ar    1  UNL1        0.0010
      6 C          64.7573   92.5892   10.8206 C.ar    1  UNL1        0.0001
      7 C          63.7265   91.5752   10.4218 C.ar    1  UNL1        0.0009
      8 C          63.2482   90.5603   11.4175 C.ar    1  UNL1        0.0122
      9 C          63.8007   90.5595   12.8120 C.ar    1  UNL1        0.0578
     10 CL         63.3225   89.5448   13.8077 Cl      1  UNL1       -0.0822
     11 C          64.8316   91.5737   13.2108 C.ar    1  UNL1        0.0136
     12 C          65.3841   91.5729   14.6054 C.ar    1  UNL1        0.0375
     13 H          67.6113   93.2197   16.6479 H       1  UNL1        0.2922
     14 C          62.2174   89.5462   11.0186 C.ar    1  UNL1        0.0222
     15 C          60.8468   89.5910   11.6265 C.ar    1  UNL1        0.0990
     16 N          59.8160   88.5769   11.2276 N.ar    1  UNL1       -0.2400
     17 C          60.1557   87.5181   10.2209 C.ar    1  UNL1        0.1284
     18 C          61.5263   87.4733    9.6131 C.ar    1  UNL1        0.1592
     19 F          61.8661   86.4145    8.6064 F       1  UNL1       -0.2025
     20 C          62.5572   88.4874   10.0119 C.ar    1  UNL1        0.0328
@<TRIPOS>BOND
     1     1     2    1
     2     2     3   ar
     3     3     4   ar
     4     4     5   ar
     5     5     6   ar
     6     6     7   ar
     7     7     8   ar
     8     8    14    1
     9    14    15   ar
    10    15    16   ar
    11    16    17   ar
    12    17    18   ar
    13    18    19    1
    14    18    20   ar
    15     8     9   ar
    16     9    10    1
    17     9    11   ar
    18    11    12   ar
    19    12     2   ar
    20    11     5   ar
    21    20    14   ar
    22     1    13    1
@<TRIPOS>MOLECULE
*****
 20 22 0 0 0
SMALL
GASTEIGER

@<TRIPOS>ATOM
      1 O          60.9218   87.1364    8.6680 O.3     1  UNL1       -0.5055
      2 C          61.6631   86.9787    9.9625 C.ar    1  UNL1        0.1337
      3 C          61.9092   85.6097   10.5239 C.ar    1  UNL1        0.0366
      4 C          62.6505   85.4520   11.8184 C.ar    1  UNL1        0.0031
      5 C          63.1457   86.6633   12.5514 C.ar    1  UNL1        0.0010
      6 C          63.8870   86.5057   13.8459 C.ar    1  UNL1        0.0001
      7 C          64.3822   87.7170   14.5789 C.ar    1  UNL1        0.0009
      8 C          64.1361   89.0861   14.0175 C.ar    1  UNL1        0.0122
      9 C          63.3949   89.2438   12.7230 C.ar    1  UNL1        0.0578
     10 CL         63.1488   90.6128   12.1616 Cl      1  UNL1       -0.0822
     11 C          62.8996   88.0323   11.9900 C.ar    1  UNL1        0.0136
     12 C          62.1583   88.1900   10.6955 C.ar    1  UNL1        0.0375
     13 H          60.6125   86.3797    8.2101 H       1  UNL1        0.2922
     14 C          64.6314   90.2974   14.7506 C.ar    1  UNL1        0.0222
     15 C          63.8294   90.8694   15.8819 C.ar    1  UNL1        0.0990
     16 N          64.3246   92.0807   16.6149 N.ar    1  UNL1       -0.2400
     17 C          65.6218   92.7201   16.2167 C.ar    1  UNL1        0.1284
     18 C          66.4237   92.1482   15.0855 C.ar    1  UNL1        0.1592
     19 F          67.7208   92.7876   14.6873 F       1  UNL1       -0.2025
     20 C          65.9285   90.9368   14.3523 C.ar    1  UNL1        0.0328
@<TRIPOS>BOND
     1     1     2    1
     2     2     3   ar
     3     3     4   ar
     4     4     5   ar
     5     5     6   ar
     6     6     7   ar
     7     7     8   ar
     8     8    14    1
     9    14    15   ar
    10    15    16   ar
    11    16    17   ar
    12    17    18   ar
    13    18    19    1
    14    18    20   ar
    15     8     9   ar
    16     9    10    1
    17     9    11   ar
    18    11    12   ar
    19    12     2   ar
    20    11     5   ar
    21    20    14   ar
    22     1    13    1
@<TRIPOS>MOLECULE
*****
 20 22 0 0 0
SMALL
GASTEIGER

@<TRIPOS>ATOM
      1 O          63.7460   91.6625   13.4159 O.3     1  UNL1       -0.5055
      2 C          63.2892   90.4978   12.5883 C.ar    1  UNL1        0.1337
      3 C          62.5791   90.7341   11.2883 C.ar    1  UNL1        0.0366
      4 C          62.1223   89.5695   10.4607 C.ar    1  UNL1        0.0031
      5 C          62.3755   88.1685   10.9331 C.ar    1  UNL1        0.0010
      6 C          61.9186   87.0039   10.1055 C.ar    1  UNL1        0.0001
      7 C          62.1718   85.6029   10.5779 C.ar    1  UNL1        0.0009
      8 C          62.8819   85.3666   11.8780 C.ar    1  UNL1        0.0122
      9 C          63.3387   86.5312   12.7056 C.ar    1  UNL1        0.0578
     10 CL         64.0487   86.2949   14.0055 Cl      1  UNL1       -0.0822
     11 C          63.0855   87.9322   12.2331 C.ar    1  UNL1        0.0136
     12 C          63.5423   89.0969   13.0607 C.ar    1  UNL1        0.0375
     13 H          63.5879   92.5376   13.1208 H       1  UNL1        0.2922
     14 C          63.1350   83.9656   12.3504 C.ar    1  UNL1        0.0222
     15 C          64.3631   83.2322   11.8986 C.ar    1  UNL1        0.0990
     16 N          64.6163   81.8312   12.3710 N.ar    1  UNL1       -0.2400
     17 C          63.6414   81.1636   13.2952 C.ar    1  UNL1        0.1284
     18 C          62.4134   81.8970   13.7469 C.ar    1  UNL1        0.1592
     19 F          61.4386   81.2294   14.6710 F       1  UNL1       -0.2025
     20 C          62.1602   83.2980   13.2745 C.ar    1  UNL1        0.0328
@<TRIPOS>BOND
     1     1     2    1
     2     2     3   ar
     3     3     4   ar
     4     4     5   ar
     5     5     6   ar
     6     6     7   ar
     7     7     8   ar
     8     8    14    1
     9    14    15   ar
    10    15    16   ar
    11    16    17   ar
    12    17    18   ar
    13    18    19    1
    14    18    20   ar
    15     8     9   ar
    16     9    10    1
    17     9    11   ar
    18    11    12   ar
    19    12     2   ar
    20    11     5   ar
    21    20    14   ar
    22     1    13    1
@<TRIPOS>MOLECULE
*****
 20 22 0 0 0
SMALL
GASTEIGER

@<TRIPOS>ATOM
      1 O          62.4483   83.5636   11.8924 O.3     1  UNL1       -0.5055
      2 C          62.4802   85.0460   11.6653 C.ar    1  UNL1        0.1337
      3 C          61.8626   85.6287   10.4289 C.ar    1  UNL1        0.0366
      4 C          61.8944   87.1111   10.2018 C.ar    1  UNL1        0.0031
      5 C          62.5439   88.0107   11.2111 C.ar    1  UNL1        0.0010
      6 C          62.5757   89.4930   10.9840 C.ar    1  UNL1        0.0001
      7 C          63.2252   90.3927   11.9934 C.ar    1  UNL1        0.0009
      8 C          63.8429   89.8099   13.2299 C.ar    1  UNL1        0.0122
      9 C          63.8110   88.3275   13.4570 C.ar    1  UNL1        0.0578
     10 CL         64.4286   87.7448   14.6935 Cl      1  UNL1       -0.0822
     11 C          63.1615   87.4279   12.4476 C.ar    1  UNL1        0.0136
     12 C          63.1297   85.9456   12.6747 C.ar    1  UNL1        0.0375
     13 H          62.0426   83.0016   11.2619 H       1  UNL1        0.2922
     14 C          64.4923   90.7095   14.2393 C.ar    1  UNL1        0.0222
     15 C          63.7589   91.0823   15.4936 C.ar    1  UNL1        0.0990
     16 N          64.4084   91.9819   16.5029 N.ar    1  UNL1       -0.2400
     17 C          65.7913   92.5088   16.2580 C.ar    1  UNL1        0.1284
     18 C          66.5247   92.1361   15.0038 C.ar    1  UNL1        0.1592
     19 F          67.9076   92.6630   14.7589 F       1  UNL1       -0.2025
     20 C          65.8752   91.2364   13.9944 C.ar    1  UNL1        0.0328
@<TRIPOS>BOND
     1     1     2    1
     2     2     3   ar
     3     3     4   ar
     4     4     5   ar
     5     5     6   ar
     6     6     7   ar
     7     7     8   ar
     8     8    14    1
     9    14    15   ar
    10    15    16   ar
    11    16    17   ar
    12    17    18   ar
    13    18    19    1
    14    18    20   ar
    15     8     9   ar
    16     9    10    1
    17     9    11   ar
    18    11    12   ar
    19    12     2   ar
    20    11     5   ar
    21    20    14   ar
    22     1    13    1
@<TRIPOS>MOLECULE
*****
 20 22 0 0 0
SMALL
GASTEIGER

@<TRIPOS>ATOM
      1 O          60.5588   87.1860   11.4010 O.3     1  UNL1       -0.5055
      2 C          61.4372   88.3859   11.2045 C.ar    1  UNL1        0.1337
      3 C          61.3377   89.1896    9.9419 C.ar    1  UNL1        0.0366
      4 C          62.2160   90.3895    9.7455 C.ar    1  UNL1        0.0031
      5 C          63.1939   90.7858   10.8116 C.ar    1  UNL1        0.0010
      6 C          64.0723   91.9857   10.6151 C.ar    1  UNL1        0.0001
      7 C          65.0502   92.3820   11.6812 C.ar    1  UNL1        0.0009
      8 C          65.1498   91.5783   12.9439 C.ar    1  UNL1        0.0122
      9 C          64.2714   90.3784   13.1403 C.ar    1  UNL1        0.0578
     10 CL         64.3709   89.5747   14.4029 Cl      1  UNL1       -0.0822
     11 C          63.2935   89.9821   12.0741 C.ar    1  UNL1        0.0136
     12 C          62.4151   88.7822   12.2706 C.ar    1  UNL1        0.0375
     13 H          59.9479   86.9385   10.7350 H       1  UNL1        0.2922
     14 C          66.1277   91.9746   14.0100 C.ar    1  UNL1        0.0222
     15 C          65.6378   92.3295   15.3827 C.ar    1  UNL1        0.0990
     16 N          66.6157   92.7257   16.4488 N.ar    1  UNL1       -0.2400
     17 C          68.0835   92.7671   16.1423 C.ar    1  UNL1        0.1284
     18 C          68.5734   92.4122   14.7697 C.ar    1  UNL1        0.1592
     19 F          70.0412   92.4536   14.4632 F       1  UNL1       -0.2025
     20 C          67.5955   92.0159   13.7035 C.ar    1  UNL1        0.0328
@<TRIPOS>BOND
     1     1     2    1
     2     2     3   ar
     3     3     4   ar
     4     4     5   ar
     5     5     6   ar
     6     6     7   ar
     7     7     8   ar
     8     8    14    1
     9    14    15   ar
    10    15    16   ar
    11    16    17   ar
    12    17    18   ar
    13    18    19    1
    14    18    20   ar
    15     8     9   ar
    16     9    10    1
    17     9    11   ar
    18    11    12   ar
    19    12     2   ar
    20    11     5   ar
    21    20    14   ar
    22     1    13    1
@<TRIPOS>MOLECULE
*****
 20 22 0 0 0
SMALL
GASTEIGER

@<TRIPOS>ATOM
      1 O          63.6315   82.5788   15.3091 O.3     1  UNL1       -0.5055
      2 C          63.6817   82.8684   13.8381 C.ar    1  UNL1        0.1337
      3 C          64.5477   82.0366   12.9391 C.ar    1  UNL1        0.0366
      4 C          64.5979   82.3261   11.4682 C.ar    1  UNL1        0.0031
      5 C          63.7822   83.4475   10.8963 C.ar    1  UNL1        0.0010
      6 C          63.8324   83.7371    9.4254 C.ar    1  UNL1        0.0001
      7 C          63.0167   84.8585    8.8534 C.ar    1  UNL1        0.0009
      8 C          62.1508   85.6903    9.7525 C.ar    1  UNL1        0.0122
      9 C          62.1005   85.4007   11.2234 C.ar    1  UNL1        0.0578
     10 CL         61.2346   86.2325   12.1224 Cl      1  UNL1       -0.0822
     11 C          62.9163   84.2793   11.7953 C.ar    1  UNL1        0.0136
     12 C          62.8661   83.9897   13.2662 C.ar    1  UNL1        0.0375
     13 H          64.1411   81.8783   15.6663 H       1  UNL1        0.2922
     14 C          61.3351   86.8117    9.1805 C.ar    1  UNL1        0.0222
     15 C          60.3943   86.5499    8.0418 C.ar    1  UNL1        0.0990
     16 N          59.5786   87.6713    7.4699 N.ar    1  UNL1       -0.2400
     17 C          59.7036   89.0545    8.0366 C.ar    1  UNL1        0.1284
     18 C          60.6443   89.3163    9.1753 C.ar    1  UNL1        0.1592
     19 F          60.7693   90.6995    9.7420 F       1  UNL1       -0.2025
     20 C          61.4600   88.1949    9.7473 C.ar    1  UNL1        0.0328
@<TRIPOS>BOND
     1     1     2    1
     2     2     3   ar
     3     3     4   ar
     4     4     5   ar
     5     5     6   ar
     6     6     7   ar
     7     7     8   ar
     8     8    14    1
     9    14    15   ar
    10    15    16   ar
    11    16    17   ar
    12    17    18   ar
    13    18    19    1
    14    18    20   ar
    15     8     9   ar
    16     9    10    1
    17     9    11   ar
    18    11    12   ar
    19    12     2   ar
    20    11     5   ar
    21    20    14   ar
    22     1    13    1
@<TRIPOS>MOLECULE
*****
 20 22 0 0 0
SMALL
GASTEIGER

@<TRIPOS>ATOM
      1 O          62.7443   80.3550   11.9401 O.3     1  UNL1       -0.5055
      2 C          63.1127   81.6604   12.5806 C.ar    1  UNL1        0.1337
      3 C          63.8340   81.6734   13.8956 C.ar    1  UNL1        0.0366
      4 C          64.2024   82.9788   14.5361 C.ar    1  UNL1        0.0031
      5 C          63.8495   84.2712   13.8616 C.ar    1  UNL1        0.0010
      6 C          64.2178   85.5766   14.5021 C.ar    1  UNL1        0.0001
      7 C          63.8649   86.8690   13.8275 C.ar    1  UNL1        0.0009
      8 C          63.1435   86.8561   12.5124 C.ar    1  UNL1        0.0122
      9 C          62.7751   85.5507   11.8719 C.ar    1  UNL1        0.0578
     10 CL         62.0537   85.5377   10.5569 Cl      1  UNL1       -0.0822
     11 C          63.1281   84.2582   12.5465 C.ar    1  UNL1        0.0136
     12 C          62.7597   82.9528   11.9060 C.ar    1  UNL1        0.0375
     13 H          62.9648   79.5477   12.3615 H       1  UNL1        0.2922
     14 C          62.7905   88.1485   11.8379 C.ar    1  UNL1        0.0222
     15 C          63.2828   89.4481   12.4024 C.ar    1  UNL1        0.0990
     16 N          62.9298   90.7405   11.7279 N.ar    1  UNL1       -0.2400
     17 C          62.0845   90.7333   10.4888 C.ar    1  UNL1        0.1284
     18 C          61.5922   89.4338    9.9242 C.ar    1  UNL1        0.1592
     19 F          60.7470   89.4267    8.6850 F       1  UNL1       -0.2025
     20 C          61.9452   88.1413   10.5987 C.ar    1  UNL1        0.0328
@<TRIPOS>BOND
     1     1     2    1
     2     2     3   ar
     3     3     4   ar
     4     4     5   ar
     5     5     6   ar
     6     6     7   ar
     7     7     8   ar
     8     8    14    1
     9    14    15   ar
    10    15    16   ar
    11    16    17   ar
    12    17    18   ar
    13    18    19    1
    14    18    20   ar
    15     8     9   ar
    16     9    10    1
    17     9    11   ar
    18    11    12   ar
    19    12     2   ar
    20    11     5   ar
    21    20    14   ar
    22     1    13    1
@<TRIPOS>MOLECULE
*****
 20 22 0 0 0
SMALL
GASTEIGER

@<TRIPOS>ATOM
      1 O          61.9189   84.3932   10.7925 O.3     1  UNL1       -0.5055
      2 C          62.0222   85.8803   10.6253 C.ar    1  UNL1        0.1337
      3 C          61.4144   86.5441    9.4253 C.ar    1  UNL1        0.0366
      4 C          61.5177   88.0311    9.2581 C.ar    1  UNL1        0.0031
      5 C          62.2288   88.8544   10.2908 C.ar    1  UNL1        0.0010
      6 C          62.3321   90.3415   10.1236 C.ar    1  UNL1        0.0001
      7 C          63.0432   91.1647   11.1563 C.ar    1  UNL1        0.0009
      8 C          63.6510   90.5009   12.3563 C.ar    1  UNL1        0.0122
      9 C          63.5478   89.0139   12.5235 C.ar    1  UNL1        0.0578
     10 CL         64.1556   88.3501   13.7235 Cl      1  UNL1       -0.0822
     11 C          62.8366   88.1906   11.4907 C.ar    1  UNL1        0.0136
     12 C          62.7333   86.7035   11.6580 C.ar    1  UNL1        0.0375
     13 H          61.4747   83.8789   10.1474 H       1  UNL1        0.2922
     14 C          64.3621   91.3242   13.3890 C.ar    1  UNL1        0.0222
     15 C          65.3211   92.3963   12.9634 C.ar    1  UNL1        0.0990
     16 N          66.0322   93.2196   13.9961 N.ar    1  UNL1       -0.2400
     17 C          65.7844   92.9708   15.4544 C.ar    1  UNL1        0.1284
     18 C          64.8256   91.8987   15.8801 C.ar    1  UNL1        0.1592
     19 F          64.5778   91.6499   17.3384 F       1  UNL1       -0.2025
     20 C          64.1144   91.0754   14.8473 C.ar    1  UNL1        0.0328
@<TRIPOS>BOND
     1     1     2    1
     2     2     3   ar
     3     3     4   ar
     4     4     5   ar
     5     5     6   ar
     6     6     7   ar
     7     7     8   ar
     8     8    14    1
     9    14    15   ar
    10    15    16   ar
    11    16    17   ar
    12    17    18   ar
    13    18    19    1
    14    18    20   ar
    15     8     9   ar
    16     9    10    1
    17     9    11   ar
    18    11    12   ar
    19    12     2   ar
    20    11     5   ar
    21    20    14   ar
    22     1    13    1
@<TRIPOS>MOLECULE
*****
 20 22 0 0 0
SMALL
GASTEIGER

@<TRIPOS>ATOM
      1 O          57.2531   92.2413    5.0374 O.3     1  UNL1       -0.5055
      2 C          58.6797   91.9872    4.6499 C.ar    1  UNL1        0.1337
      3 C          59.4767   90.9390    5.3683 C.ar    1  UNL1        0.0366
      4 C          60.9033   90.6849    4.9807 C.ar    1  UNL1        0.0031
      5 C          61.5329   91.4789    3.8748 C.ar    1  UNL1        0.0010
      6 C          62.9595   91.2247    3.4872 C.ar    1  UNL1        0.0001
      7 C          63.5891   92.0187    2.3812 C.ar    1  UNL1        0.0009
      8 C          62.7921   93.0669    1.6628 C.ar    1  UNL1        0.0122
      9 C          61.3655   93.3210    2.0503 C.ar    1  UNL1        0.0578
     10 CL         60.5684   94.3691    1.3319 Cl      1  UNL1       -0.0822
     11 C          60.7359   92.5270    3.1564 C.ar    1  UNL1        0.0136
     12 C          59.3093   92.7811    3.5439 C.ar    1  UNL1        0.0375
     13 H          56.8598   91.7453    5.7283 H       1  UNL1        0.2922
     14 C          63.4217   93.8609    0.5568 C.ar    1  UNL1        0.0222
     15 C          63.0304   93.6031   -0.8682 C.ar    1  UNL1        0.0990
     16 N          63.6600   94.3971   -1.9741 N.ar    1  UNL1       -0.2400
     17 C          64.6808   95.4488   -1.6552 C.ar    1  UNL1        0.1284
     18 C          65.0721   95.7066   -0.2303 C.ar    1  UNL1        0.1592
     19 F          66.0930   96.7583    0.0887 F       1  UNL1       -0.2025
     20 C          64.4425   94.9126    0.8758 C.ar    1  UNL1        0.0328
@<TRIPOS>BOND
     1     1     2    1
     2     2     3   ar
     3     3     4   ar
     4     4     5   ar
     5     5     6   ar
     6     6     7   ar
     7     7     8   ar
     8     8    14    1
     9    14    15   ar
    10    15    16   ar
    11    16    17   ar
    12    17    18   ar
    13    18    19    1
    14    18    20   ar
    15     8     9   ar
    16     9    10    1
    17     9    11   ar
    18    11    12   ar
    19    12     2   ar
    20    11     5   ar
    21    20    14   ar
    22     1    13    1
