@<TRIPOS>MOLECULE
*****
 27 30 0 0 0
SMALL
GASTEIGER

@<TRIPOS>ATOM
      1 C          62.7572   88.9956   11.9809 C.ar    1  UNL1        0.0193
      2 C          63.5664   88.2450   12.9967 C.ar    1  UNL1        0.0017
      3 C          64.1746   88.9737   14.1581 C.ar    1  UNL1        0.0046
      4 C          63.9736   90.4530   14.3038 C.ar    1  UNL1        0.0536
      5 C          63.1645   91.2036   13.2880 C.ar    1  UNL1        0.0046
      6 C          62.5562   90.4749   12.1265 C.ar    1  UNL1        0.0017
      7 C          59.7302   88.9907    7.7574 C.3     1  UNL1        0.1571
      8 N          60.6355   88.2644    8.7077 N.ar    1  UNL1       -0.2146
      9 N          61.2437   88.9931    9.8691 N.ar    1  UNL1       -0.1668
     10 C          62.1490   88.2668   10.8194 C.ar    1  UNL1        0.1011
     11 C          62.4460   86.8118   10.6081 C.ar    1  UNL1        0.0258
     12 C          61.8378   86.0831    9.4467 C.ar    1  UNL1        0.0638
     13 C          60.9325   86.8094    8.4965 C.ar    1  UNL1        0.2765
     14 O          60.3243   86.0806    7.3350 O.2     1  UNL1       -0.2655
     15 C          64.5818   91.1817   15.4653 C.2     1  UNL1        0.2490
     16 O          63.9561   91.0809   16.8247 O.2     1  UNL1       -0.2699
     17 N          65.8158   92.0113   15.2673 N.am    1  UNL1       -0.2763
     18 C          66.5330   92.7921   16.3284 C.3     1  UNL1        0.0938
     19 C          67.7097   93.4690   15.6903 C.3     1  UNL1        0.0233
     20 C          67.7198   93.1065   14.2348 C.3     1  UNL1        0.0230
     21 C          66.5494   92.2056   13.9734 C.3     1  UNL1        0.0916
     22 C          66.1777   91.6045   12.6503 C.3     1  UNL1        0.0921
     23 N          66.6656   92.2315   11.3780 N.3     1  UNL1       -0.2713
     24 C          67.9530   91.9148   10.6763 C.3     1  UNL1        0.0722
     25 C          68.0348   92.7729    9.4486 C.3     1  UNL1        0.0188
     26 C          66.7981   93.6198    9.3916 C.3     1  UNL1        0.0188
     27 C          65.9519   93.2852   10.5841 C.3     1  UNL1        0.0722
@<TRIPOS>BOND
     1     7     8    1
     2     8     9   ar
     3     9    10   ar
     4    10     1    1
     5     1     2   ar
     6     2     3   ar
     7     3     4   ar
     8     4    15    1
     9    15    16    2
    10    15    17   am
    11    17    18    1
    12    18    19    1
    13    19    20    1
    14    20    21    1
    15    21    22    1
    16    22    23    1
    17    23    24    1
    18    24    25    1
    19    25    26    1
    20    26    27    1
    21     4     5   ar
    22     5     6   ar
    23    10    11   ar
    24    11    12   ar
    25    12    13   ar
    26    13    14    2
    27    13     8   ar
    28     6     1   ar
    29    21    17    1
    30    27    23    1
@<TRIPOS>MOLECULE
*****
 27 30 0 0 0
SMALL
GASTEIGER

@<TRIPOS>ATOM
      1 C          63.3635   89.7451   12.5347 C.ar    1  UNL1        0.0193
      2 C          63.5519   91.2268   12.3965 C.ar    1  UNL1        0.0017
      3 C          64.2879   91.9914   13.4565 C.ar    1  UNL1        0.0046
      4 C          64.8355   91.2743   14.6549 C.ar    1  UNL1        0.0536
      5 C          64.6471   89.7926   14.7931 C.ar    1  UNL1        0.0046
      6 C          63.9110   89.0280   13.7330 C.ar    1  UNL1        0.0017
      7 C          61.8472   85.2172   10.4857 C.3     1  UNL1        0.1571
      8 N          61.8694   86.7166   10.4501 N.ar    1  UNL1       -0.2146
      9 N          62.6053   87.4811   11.5101 N.ar    1  UNL1       -0.1668
     10 C          62.6275   88.9806   11.4746 C.ar    1  UNL1        0.1011
     11 C          61.9137   89.7154   10.3790 C.ar    1  UNL1        0.0258
     12 C          61.1777   88.9508    9.3189 C.ar    1  UNL1        0.0638
     13 C          61.1556   87.4514    9.3545 C.ar    1  UNL1        0.2765
     14 O          60.4196   86.6869    8.2943 O.2     1  UNL1       -0.2655
     15 C          65.5714   92.0388   15.7149 C.2     1  UNL1        0.2490
     16 O          64.8990   92.3487   17.0194 O.2     1  UNL1       -0.2699
     17 N          66.9798   92.4936   15.4705 N.am    1  UNL1       -0.2763
     18 C          67.8373   93.2627   16.4312 C.3     1  UNL1        0.0938
     19 C          69.1654   93.5035   15.7769 C.3     1  UNL1        0.0233
     20 C          69.1287   92.8831   14.4116 C.3     1  UNL1        0.0230
     21 C          67.7779   92.2590   14.2223 C.3     1  UNL1        0.0916
     22 C          67.3078   91.5285   12.9994 C.3     1  UNL1        0.0921
     23 N          67.4326   92.1690   11.6489 N.3     1  UNL1       -0.2713
     24 C          68.4238   91.7987   10.5857 C.3     1  UNL1        0.0722
     25 C          68.1918   92.6931    9.4040 C.3     1  UNL1        0.0188
     26 C          67.0572   93.6161    9.7368 C.3     1  UNL1        0.0188
     27 C          66.5880   93.2922   11.1242 C.3     1  UNL1        0.0722
@<TRIPOS>BOND
     1     7     8    1
     2     8     9   ar
     3     9    10   ar
     4    10     1    1
     5     1     2   ar
     6     2     3   ar
     7     3     4   ar
     8     4    15    1
     9    15    16    2
    10    15    17   am
    11    17    18    1
    12    18    19    1
    13    19    20    1
    14    20    21    1
    15    21    22    1
    16    22    23    1
    17    23    24    1
    18    24    25    1
    19    25    26    1
    20    26    27    1
    21     4     5   ar
    22     5     6   ar
    23    10    11   ar
    24    11    12   ar
    25    12    13   ar
    26    13    14    2
    27    13     8   ar
    28     6     1   ar
    29    21    17    1
    30    27    23    1
@<TRIPOS>MOLECULE
*****
 27 30 0 0 0
SMALL
GASTEIGER

@<TRIPOS>ATOM
      1 C          63.5302   90.8682   12.2864 C.ar    1  UNL1        0.0193
      2 C          62.3353   90.0937   12.7582 C.ar    1  UNL1        0.0017
      3 C          61.2973   89.6430   11.7737 C.ar    1  UNL1        0.0046
      4 C          61.4540   89.9667   10.3174 C.ar    1  UNL1        0.0536
      5 C          62.6489   90.7412    9.8457 C.ar    1  UNL1        0.0046
      6 C          63.6870   91.1919   10.8302 C.ar    1  UNL1        0.0017
      7 C          64.8468   92.2636   17.1154 C.3     1  UNL1        0.1571
      8 N          65.2266   92.0166   15.6855 N.ar    1  UNL1       -0.2146
      9 N          64.1885   91.5659   14.7009 N.ar    1  UNL1       -0.1668
     10 C          64.5683   91.3189   13.2710 C.ar    1  UNL1        0.1011
     11 C          65.9860   91.5226   12.8256 C.ar    1  UNL1        0.0258
     12 C          67.0240   91.9732   13.8101 C.ar    1  UNL1        0.0638
     13 C          66.6443   92.2203   15.2401 C.ar    1  UNL1        0.2765
     14 O          67.6824   92.6710   16.2246 O.2     1  UNL1       -0.2655
     15 C          60.4159   89.5160    9.3330 C.2     1  UNL1        0.2490
     16 O          59.3875   90.4856    8.8309 O.2     1  UNL1       -0.2699
     17 N          60.4064   88.0957    8.8506 N.am    1  UNL1       -0.2763
     18 C          59.4355   87.5032    7.8727 C.3     1  UNL1        0.0938
     19 C          59.7950   86.0599    7.6791 C.3     1  UNL1        0.0233
     20 C          60.9882   85.7603    8.5373 C.3     1  UNL1        0.0230
     21 C          61.3660   87.0185    9.2613 C.3     1  UNL1        0.0916
     22 C          62.5037   87.1725   10.2267 C.3     1  UNL1        0.0921
     23 N          62.7550   86.1187   11.2641 N.3     1  UNL1       -0.2713
     24 C          62.6550   84.6364   11.0573 C.3     1  UNL1        0.0722
     25 C          62.9886   83.9637   12.3559 C.3     1  UNL1        0.0188
     26 C          63.2946   85.0303   13.3653 C.3     1  UNL1        0.0188
     27 C          63.1503   86.3621   12.6905 C.3     1  UNL1        0.0722
@<TRIPOS>BOND
     1     7     8    1
     2     8     9   ar
     3     9    10   ar
     4    10     1    1
     5     1     2   ar
     6     2     3   ar
     7     3     4   ar
     8     4    15    1
     9    15    16    2
    10    15    17   am
    11    17    18    1
    12    18    19    1
    13    19    20    1
    14    20    21    1
    15    21    22    1
    16    22    23    1
    17    23    24    1
    18    24    25    1
    19    25    26    1
    20    26    27    1
    21     4     5   ar
    22     5     6   ar
    23    10    11   ar
    24    11    12   ar
    25    12    13   ar
    26    13    14    2
    27    13     8   ar
    28     6     1   ar
    29    21    17    1
    30    27    23    1
@<TRIPOS>MOLECULE
*****
 27 30 0 0 0
SMALL
GASTEIGER

@<TRIPOS>ATOM
      1 C          63.5388   86.1020   15.0301 C.ar    1  UNL1        0.0193
      2 C          64.7540   85.3884   14.5162 C.ar    1  UNL1        0.0017
      3 C          64.6612   83.9483   14.1072 C.ar    1  UNL1        0.0046
      4 C          63.3531   83.2217   14.2120 C.ar    1  UNL1        0.0536
      5 C          62.1378   83.9352   14.7260 C.ar    1  UNL1        0.0046
      6 C          62.2307   85.3754   15.1350 C.ar    1  UNL1        0.0017
      7 C          64.9989   90.9838   14.0122 C.3     1  UNL1        0.1571
      8 N          64.3617   89.9831   14.9301 N.ar    1  UNL1       -0.2146
      9 N          64.2688   88.5430   14.5212 N.ar    1  UNL1       -0.1668
     10 C          63.6317   87.5422   15.4391 C.ar    1  UNL1        0.1011
     11 C          63.0875   87.9816   16.7660 C.ar    1  UNL1        0.0258
     12 C          63.1804   89.4218   17.1750 C.ar    1  UNL1        0.0638
     13 C          63.8175   90.4225   16.2570 C.ar    1  UNL1        0.2765
     14 O          63.9104   91.8627   16.6661 O.2     1  UNL1       -0.2655
     15 C          63.2602   81.7815   13.8030 C.2     1  UNL1        0.2490
     16 O          63.2042   80.7072   14.8483 O.2     1  UNL1       -0.2699
     17 N          63.2234   81.4157   12.3488 N.am    1  UNL1       -0.2763
     18 C          63.1322   80.0262   11.7911 C.3     1  UNL1        0.0938
     19 C          63.1237   80.1270   10.2945 C.3     1  UNL1        0.0233
     20 C          63.2096   81.5788    9.9272 C.3     1  UNL1        0.0230
     21 C          63.2712   82.3752   11.1968 C.3     1  UNL1        0.0916
     22 C          63.3643   83.8690   11.2968 C.3     1  UNL1        0.0921
     23 N          62.6948   84.7327   10.2694 N.3     1  UNL1       -0.2713
     24 C          63.0961   84.8626    8.8299 C.3     1  UNL1        0.0722
     25 C          62.1556   85.8284    8.1719 C.3     1  UNL1        0.0188
     26 C          61.1731   86.2953    9.2047 C.3     1  UNL1        0.0188
     27 C          61.5063   85.6182   10.5010 C.3     1  UNL1        0.0722
@<TRIPOS>BOND
     1     7     8    1
     2     8     9   ar
     3     9    10   ar
     4    10     1    1
     5     1     2   ar
     6     2     3   ar
     7     3     4   ar
     8     4    15    1
     9    15    16    2
    10    15    17   am
    11    17    18    1
    12    18    19    1
    13    19    20    1
    14    20    21    1
    15    21    22    1
    16    22    23    1
    17    23    24    1
    18    24    25    1
    19    25    26    1
    20    26    27    1
    21     4     5   ar
    22     5     6   ar
    23    10    11   ar
    24    11    12   ar
    25    12    13   ar
    26    13    14    2
    27    13     8   ar
    28     6     1   ar
    29    21    17    1
    30    27    23    1
@<TRIPOS>MOLECULE
*****
 27 30 0 0 0
SMALL
GASTEIGER

@<TRIPOS>ATOM
      1 C          62.6207   89.9864   10.5401 C.ar    1  UNL1        0.0193
      2 C          63.0561   91.2766    9.9110 C.ar    1  UNL1        0.0017
      3 C          64.1003   92.1216   10.5785 C.ar    1  UNL1        0.0046
      4 C          64.7090   91.6765   11.8752 C.ar    1  UNL1        0.0536
      5 C          64.2736   90.3863   12.5043 C.ar    1  UNL1        0.0046
      6 C          63.2294   89.5412   11.8367 C.ar    1  UNL1        0.0017
      7 C          59.0054   89.3745    6.8584 C.3     1  UNL1        0.1571
      8 N          59.7688   88.8354    8.0316 N.ar    1  UNL1       -0.2146
      9 N          60.8130   89.6804    8.6992 N.ar    1  UNL1       -0.1668
     10 C          61.5765   89.1414    9.8725 C.ar    1  UNL1        0.1011
     11 C          61.2958   87.7574   10.3781 C.ar    1  UNL1        0.0258
     12 C          60.2517   86.9124    9.7105 C.ar    1  UNL1        0.0638
     13 C          59.4882   87.4514    8.5373 C.ar    1  UNL1        0.2765
     14 O          58.4440   86.6064    7.8697 O.2     1  UNL1       -0.2655
     15 C          65.7532   92.5215   12.5428 C.2     1  UNL1        0.2490
     16 O          66.6603   93.3844   11.7167 O.2     1  UNL1       -0.2699
     17 N          65.8902   92.5036   14.0364 N.am    1  UNL1       -0.2763
     18 C          66.8821   93.2909   14.8403 C.3     1  UNL1        0.0938
     19 C          66.6643   92.9692   16.2891 C.3     1  UNL1        0.0233
     20 C          65.5377   91.9831   16.3806 C.3     1  UNL1        0.0230
     21 C          65.0593   91.6954   14.9884 C.3     1  UNL1        0.0916
     22 C          63.9455   90.7631   14.6139 C.3     1  UNL1        0.0921
     23 N          63.7319   89.4988   15.3923 N.3     1  UNL1       -0.2713
     24 C          64.2166   88.1329   15.0057 C.3     1  UNL1        0.0722
     25 C          63.7804   87.1683   16.0685 C.3     1  UNL1        0.0188
     26 C          63.0262   87.9381   17.1119 C.3     1  UNL1        0.0188
     27 C          62.9963   89.3783   16.6940 C.3     1  UNL1        0.0722
@<TRIPOS>BOND
     1     7     8    1
     2     8     9   ar
     3     9    10   ar
     4    10     1    1
     5     1     2   ar
     6     2     3   ar
     7     3     4   ar
     8     4    15    1
     9    15    16    2
    10    15    17   am
    11    17    18    1
    12    18    19    1
    13    19    20    1
    14    20    21    1
    15    21    22    1
    16    22    23    1
    17    23    24    1
    18    24    25    1
    19    25    26    1
    20    26    27    1
    21     4     5   ar
    22     5     6   ar
    23    10    11   ar
    24    11    12   ar
    25    12    13   ar
    26    13    14    2
    27    13     8   ar
    28     6     1   ar
    29    21    17    1
    30    27    23    1
@<TRIPOS>MOLECULE
*****
 27 30 0 0 0
SMALL
GASTEIGER

@<TRIPOS>ATOM
      1 C          63.9614   87.6711   13.7617 C.ar    1  UNL1        0.0193
      2 C          62.8490   87.0612   12.9614 C.ar    1  UNL1        0.0017
      3 C          62.4895   85.6179   13.1552 C.ar    1  UNL1        0.0046
      4 C          63.2425   84.7844   14.1494 C.ar    1  UNL1        0.0536
      5 C          64.3549   85.3943   14.9498 C.ar    1  UNL1        0.0046
      6 C          64.7143   86.8377   14.7559 C.ar    1  UNL1        0.0017
      7 C          66.6425   91.8761   15.2211 C.3     1  UNL1        0.1571
      8 N          65.6613   91.2170   14.2975 N.ar    1  UNL1       -0.2146
      9 N          65.3019   89.7736   14.4914 N.ar    1  UNL1       -0.1668
     10 C          64.3208   89.1145   13.5678 C.ar    1  UNL1        0.1011
     11 C          63.6991   89.8986   12.4505 C.ar    1  UNL1        0.0258
     12 C          64.0585   91.3420   12.2567 C.ar    1  UNL1        0.0638
     13 C          65.0396   92.0011   13.1802 C.ar    1  UNL1        0.2765
     14 O          65.3990   93.4445   12.9863 O.2     1  UNL1       -0.2655
     15 C          62.8831   83.3411   14.3433 C.2     1  UNL1        0.2490
     16 O          62.4827   82.8437   15.7005 O.2     1  UNL1       -0.2699
     17 N          62.9241   82.3952   13.1798 N.am    1  UNL1       -0.2763
     18 C          62.5932   80.9327   13.2205 C.3     1  UNL1        0.0938
     19 C          62.7678   80.3793   11.8372 C.3     1  UNL1        0.0233
     20 C          63.2065   81.4998   10.9417 C.3     1  UNL1        0.0230
     21 C          63.3031   82.7457   11.7715 C.3     1  UNL1        0.0916
     22 C          63.7076   84.1036   11.2792 C.3     1  UNL1        0.0921
     23 N          63.0959   84.6609   10.0282 N.3     1  UNL1       -0.2713
     24 C          63.5617   84.3989    8.6267 C.3     1  UNL1        0.0722
     25 C          62.6646   85.1541    7.6912 C.3     1  UNL1        0.0188
     26 C          61.6444   85.8829    8.5147 C.3     1  UNL1        0.0188
     27 C          61.9109   85.5781    9.9589 C.3     1  UNL1        0.0722
@<TRIPOS>BOND
     1     7     8    1
     2     8     9   ar
     3     9    10   ar
     4    10     1    1
     5     1     2   ar
     6     2     3   ar
     7     3     4   ar
     8     4    15    1
     9    15    16    2
    10    15    17   am
    11    17    18    1
    12    18    19    1
    13    19    20    1
    14    20    21    1
    15    21    22    1
    16    22    23    1
    17    23    24    1
    18    24    25    1
    19    25    26    1
    20    26    27    1
    21     4     5   ar
    22     5     6   ar
    23    10    11   ar
    24    11    12   ar
    25    12    13   ar
    26    13    14    2
    27    13     8   ar
    28     6     1   ar
    29    21    17    1
    30    27    23    1
@<TRIPOS>MOLECULE
*****
 27 30 0 0 0
SMALL
GASTEIGER

@<TRIPOS>ATOM
      1 C          62.3623   89.4446   11.7461 C.ar    1  UNL1        0.0193
      2 C          61.3369   88.3824   12.0111 C.ar    1  UNL1        0.0017
      3 C          60.6067   87.7429   10.8675 C.ar    1  UNL1        0.0046
      4 C          60.9021   88.1655    9.4589 C.ar    1  UNL1        0.0536
      5 C          61.9275   89.2277    9.1939 C.ar    1  UNL1        0.0046
      6 C          62.6576   89.8672   10.3376 C.ar    1  UNL1        0.0017
      7 C          63.2182   89.8919   16.8518 C.3     1  UNL1        0.1571
      8 N          63.5204   90.3078   15.4426 N.ar    1  UNL1       -0.2146
      9 N          62.7903   89.6683   14.2990 N.ar    1  UNL1       -0.1668
     10 C          63.0924   90.0842   12.8898 C.ar    1  UNL1        0.1011
     11 C          64.1246   91.1396   12.6243 C.ar    1  UNL1        0.0258
     12 C          64.8547   91.7792   13.7680 C.ar    1  UNL1        0.0638
     13 C          64.5526   91.3632   15.1771 C.ar    1  UNL1        0.2765
     14 O          65.2827   92.0028   16.3208 O.2     1  UNL1       -0.2655
     15 C          60.1720   87.5259    8.3153 C.2     1  UNL1        0.2490
     16 O          58.9041   88.1385    7.7984 O.2     1  UNL1       -0.2699
     17 N          60.7097   86.2737    7.6886 N.am    1  UNL1       -0.2763
     18 C          60.0925   85.5250    6.5446 C.3     1  UNL1        0.0938
     19 C          60.9604   84.3389    6.2448 C.3     1  UNL1        0.0233
     20 C          62.1139   84.3544    7.2035 C.3     1  UNL1        0.0230
     21 C          61.9590   85.5502    8.0958 C.3     1  UNL1        0.0916
     22 C          62.8899   85.9519    9.2012 C.3     1  UNL1        0.0921
     23 N          63.2011   84.9878   10.3073 N.3     1  UNL1       -0.2713
     24 C          62.8029   85.1378   11.7457 C.3     1  UNL1        0.0722
     25 C          63.3208   83.9470   12.4966 C.3     1  UNL1        0.0188
     26 C          64.0391   83.0611   11.5224 C.3     1  UNL1        0.0188
     27 C          63.9651   83.7043   10.1694 C.3     1  UNL1        0.0722
@<TRIPOS>BOND
     1     7     8    1
     2     8     9   ar
     3     9    10   ar
     4    10     1    1
     5     1     2   ar
     6     2     3   ar
     7     3     4   ar
     8     4    15    1
     9    15    16    2
    10    15    17   am
    11    17    18    1
    12    18    19    1
    13    19    20    1
    14    20    21    1
    15    21    22    1
    16    22    23    1
    17    23    24    1
    18    24    25    1
    19    25    26    1
    20    26    27    1
    21     4     5   ar
    22     5     6   ar
    23    10    11   ar
    24    11    12   ar
    25    12    13   ar
    26    13    14    2
    27    13     8   ar
    28     6     1   ar
    29    21    17    1
    30    27    23    1
@<TRIPOS>MOLECULE
*****
 27 30 0 0 0
SMALL
GASTEIGER

@<TRIPOS>ATOM
      1 C          62.9635   83.7907   14.4577 C.ar    1  UNL1        0.0193
      2 C          61.7238   84.3392   15.0999 C.ar    1  UNL1        0.0017
      3 C          61.7950   85.5956   15.9162 C.ar    1  UNL1        0.0046
      4 C          63.1060   86.3036   16.0903 C.ar    1  UNL1        0.0536
      5 C          64.3456   85.7551   15.4481 C.ar    1  UNL1        0.0046
      6 C          64.2743   84.4986   14.6318 C.ar    1  UNL1        0.0017
      7 C          63.6675   81.3088    9.9472 C.3     1  UNL1        0.1571
      8 N          63.2442   81.2934   11.3862 N.ar    1  UNL1       -0.2146
      9 N          63.3154   82.5497   12.2025 N.ar    1  UNL1       -0.1668
     10 C          62.8922   82.5342   13.6414 C.ar    1  UNL1        0.1011
     11 C          62.3976   81.2624   14.2641 C.ar    1  UNL1        0.0258
     12 C          62.3264   80.0060   13.4478 C.ar    1  UNL1        0.0638
     13 C          62.7496   80.0215   12.0088 C.ar    1  UNL1        0.2765
     14 O          62.6783   78.7650   11.1925 O.2     1  UNL1       -0.2655
     15 C          63.1772   87.5600   16.9066 C.2     1  UNL1        0.2490
     16 O          62.9014   87.5135   18.3803 O.2     1  UNL1       -0.2699
     17 N          63.5242   88.8628   16.2492 N.am    1  UNL1       -0.2763
     18 C          63.6326   90.1938   16.9324 C.3     1  UNL1        0.0938
     19 C          63.9992   91.2170   15.8986 C.3     1  UNL1        0.0233
     20 C          64.1173   90.5185   14.5765 C.3     1  UNL1        0.0230
     21 C          63.8237   89.0635   14.7932 C.3     1  UNL1        0.0916
     22 C          63.8288   87.9965   13.7389 C.3     1  UNL1        0.0921
     23 N          63.1498   88.2385   12.4235 N.3     1  UNL1       -0.2713
     24 C          62.5096   87.1951   11.5567 C.3     1  UNL1        0.0722
     25 C          61.9558   87.8782   10.3414 C.3     1  UNL1        0.0188
     26 C          62.2537   89.3437   10.4572 C.3     1  UNL1        0.0188
     27 C          62.9916   89.5664   11.7440 C.3     1  UNL1        0.0722
@<TRIPOS>BOND
     1     7     8    1
     2     8     9   ar
     3     9    10   ar
     4    10     1    1
     5     1     2   ar
     6     2     3   ar
     7     3     4   ar
     8     4    15    1
     9    15    16    2
    10    15    17   am
    11    17    18    1
    12    18    19    1
    13    19    20    1
    14    20    21    1
    15    21    22    1
    16    22    23    1
    17    23    24    1
    18    24    25    1
    19    25    26    1
    20    26    27    1
    21     4     5   ar
    22     5     6   ar
    23    10    11   ar
    24    11    12   ar
    25    12    13   ar
    26    13    14    2
    27    13     8   ar
    28     6     1   ar
    29    21    17    1
    30    27    23    1
