@<TRIPOS>MOLECULE
*****
 33 37 0 0 0
SMALL
GASTEIGER

@<TRIPOS>ATOM
      1 C          63.0690   90.9083   11.6084 C.3     1  UNL1        0.0749
      2 C          64.3341   91.7062   11.4952 C.3     1  UNL1        0.0444
      3 C          65.2311   91.8629   12.6871 C.ar    1  UNL1       -0.0101
      4 C          64.8631   91.2217   13.9923 C.ar    1  UNL1       -0.0091
      5 C          65.7602   91.3785   15.1842 C.ar    1  UNL1       -0.0032
      6 C          67.0253   92.1764   15.0710 C.ar    1  UNL1        0.0010
      7 C          67.3933   92.8176   13.7659 C.ar    1  UNL1        0.0142
      8 C          66.4963   92.6609   12.5739 C.ar    1  UNL1        0.0436
      9 C          63.5980   90.4238   14.1055 C.3     1  UNL1        0.0954
     10 N          62.7010   90.2671   12.9136 N.3     1  UNL1       -0.2934
     11 H          61.7902   90.6417   13.1792 H       1  UNL1        0.1236
     12 N          66.8643   93.3021   11.2688 N.pl3   1  UNL1       -0.3049
     13 C          67.6401   92.5275   10.2450 C.3     1  UNL1        0.1079
     14 C          68.0081   93.1687    8.9399 C.3     1  UNL1        0.0903
     15 N          67.6003   94.5846    8.6585 N.3     1  UNL1       -0.2946
     16 C          66.8245   95.3592    9.6823 C.3     1  UNL1        0.0903
     17 C          66.4565   94.7179   10.9874 C.3     1  UNL1        0.1079
     18 H          67.0321   94.5646    7.8117 H       1  UNL1        0.1233
     19 C          62.1719   90.7516   10.4165 C.3     1  UNL1        0.0886
     20 N          60.9188   89.9341   10.5233 N.3     1  UNL1       -0.2679
     21 C          60.8201   88.6164    9.8135 C.3     1  UNL1        0.0978
     22 C          60.0756   88.5178    8.5151 C.3     1  UNL1        0.0224
     23 C          59.9770   87.2000    7.8053 C.3     1  UNL1        0.0065
     24 C          60.6229   85.9809    8.3939 C.3     1  UNL1        0.0277
     25 C          61.3674   86.0795    9.6923 C.ar    1  UNL1       -0.0073
     26 C          62.0133   84.8603   10.2809 C.ar    1  UNL1       -0.0015
     27 C          62.7578   84.9589   11.5794 C.ar    1  UNL1        0.0203
     28 C          62.8565   86.2767   12.2892 C.ar    1  UNL1        0.0985
     29 N          62.2106   87.4958   11.7006 N.ar    1  UNL1       -0.2471
     30 C          61.4661   87.3972   10.4021 C.ar    1  UNL1        0.0695
     31 C          59.7642   90.4344   11.3399 C.3     1  UNL1        0.0724
     32 C          58.0859   88.9808   12.6890 C.3     1  UNL1        0.0015
     33 C          59.3823   89.7310   12.6085 C.3     1  UNL1        0.0173
@<TRIPOS>BOND
     1    32    33    1
     2    33    31    1
     3    31    20    1
     4    20    19    1
     5     1    19    1
     6     1     2    1
     7     2     3    1
     8     3     4   ar
     9     4     5   ar
    10     5     6   ar
    11     6     7   ar
    12     7     8   ar
    13     8    12    1
    14    12    13    1
    15    13    14    1
    16    14    15    1
    17    15    16    1
    18    16    17    1
    19     4     9    1
    20     9    10    1
    21    21    20    1
    22    21    22    1
    23    22    23    1
    24    23    24    1
    25    24    25    1
    26    25    26   ar
    27    26    27   ar
    28    27    28   ar
    29    28    29   ar
    30    29    30   ar
    31    10     1    1
    32    30    21    1
    33     8     3   ar
    34    17    12    1
    35    30    25   ar
    36    15    18    1
    37    10    11    1
@<TRIPOS>MOLECULE
*****
 33 37 0 0 0
SMALL
GASTEIGER

@<TRIPOS>ATOM
      1 C          64.4027   86.0995   14.6455 C.3     1  UNL1        0.0749
      2 C          63.7559   85.6428   13.3715 C.3     1  UNL1        0.0444
      3 C          63.3499   84.2080   13.2091 C.ar    1  UNL1       -0.0101
      4 C          63.5906   83.2299   14.3206 C.ar    1  UNL1       -0.0091
      5 C          63.1844   81.7950   14.1581 C.ar    1  UNL1       -0.0032
      6 C          62.5377   81.3383   12.8841 C.ar    1  UNL1        0.0010
      7 C          62.2970   82.3164   11.7726 C.ar    1  UNL1        0.0142
      8 C          62.7030   83.7512   11.9351 C.ar    1  UNL1        0.0436
      9 C          64.2374   83.6866   15.5945 C.3     1  UNL1        0.0954
     10 N          64.6434   85.1214   15.7570 N.3     1  UNL1       -0.2934
     11 H          65.6469   85.1245   15.9398 H       1  UNL1        0.1236
     12 N          62.4623   84.7292   10.8235 N.pl3   1  UNL1       -0.3049
     13 C          61.4557   85.8279   10.9962 C.3     1  UNL1        0.1079
     14 C          61.2149   86.8059    9.8846 C.3     1  UNL1        0.0903
     15 N          61.9809   86.6853    8.6005 N.3     1  UNL1       -0.2946
     16 C          62.9875   85.5867    8.4280 C.3     1  UNL1        0.0903
     17 C          63.2282   84.6087    9.5395 C.3     1  UNL1        0.1079
     18 H          62.4804   87.5653    8.4719 H       1  UNL1        0.1233
     19 C          64.8088   87.5343   14.8080 C.3     1  UNL1        0.0886
     20 N          63.7831   88.6222   14.6886 N.3     1  UNL1       -0.2679
     21 C          63.7517   89.4928   13.4675 C.3     1  UNL1        0.0978
     22 C          62.8841   89.1193   12.3023 C.3     1  UNL1        0.0224
     23 C          62.8527   89.9898   11.0811 C.3     1  UNL1        0.0065
     24 C          63.6889   91.2338   11.0252 C.3     1  UNL1        0.0277
     25 C          64.5566   91.6073   12.1904 C.ar    1  UNL1       -0.0073
     26 C          65.3928   92.8513   12.1344 C.ar    1  UNL1       -0.0015
     27 C          66.2605   93.2247   13.2996 C.ar    1  UNL1        0.0203
     28 C          66.2919   92.3542   14.5207 C.ar    1  UNL1        0.0985
     29 N          65.4556   91.1102   14.5767 N.ar    1  UNL1       -0.2471
     30 C          64.5880   90.7368   13.4115 C.ar    1  UNL1        0.0695
     31 C          62.7887   88.8397   15.7905 C.3     1  UNL1        0.0724
     32 C          62.5407   87.0690   17.6754 C.3     1  UNL1        0.0015
     33 C          63.0968   88.3718   17.1819 C.3     1  UNL1        0.0173
@<TRIPOS>BOND
     1    32    33    1
     2    33    31    1
     3    31    20    1
     4    20    19    1
     5     1    19    1
     6     1     2    1
     7     2     3    1
     8     3     4   ar
     9     4     5   ar
    10     5     6   ar
    11     6     7   ar
    12     7     8   ar
    13     8    12    1
    14    12    13    1
    15    13    14    1
    16    14    15    1
    17    15    16    1
    18    16    17    1
    19     4     9    1
    20     9    10    1
    21    21    20    1
    22    21    22    1
    23    22    23    1
    24    23    24    1
    25    24    25    1
    26    25    26   ar
    27    26    27   ar
    28    27    28   ar
    29    28    29   ar
    30    29    30   ar
    31    10     1    1
    32    30    21    1
    33     8     3   ar
    34    17    12    1
    35    30    25   ar
    36    15    18    1
    37    10    11    1
@<TRIPOS>MOLECULE
*****
 33 37 0 0 0
SMALL
GASTEIGER

@<TRIPOS>ATOM
      1 C          63.8961   91.6567   10.9186 C.3     1  UNL1        0.0749
      2 C          64.1342   91.1958   12.3260 C.3     1  UNL1        0.0444
      3 C          65.1164   91.9218   13.1968 C.ar    1  UNL1       -0.0101
      4 C          65.8605   93.1085   12.6602 C.ar    1  UNL1       -0.0091
      5 C          66.8427   93.8344   13.5311 C.ar    1  UNL1       -0.0032
      6 C          67.0808   93.3736   14.9385 C.ar    1  UNL1        0.0010
      7 C          66.3367   92.1868   15.4751 C.ar    1  UNL1        0.0142
      8 C          65.3545   91.4609   14.6043 C.ar    1  UNL1        0.0436
      9 C          65.6224   93.5693   11.2528 C.3     1  UNL1        0.0954
     10 N          64.6402   92.8434   10.3820 N.3     1  UNL1       -0.2934
     11 H          65.1549   92.5221    9.5621 H       1  UNL1        0.1236
     12 N          64.6104   90.2742   15.1410 N.pl3   1  UNL1       -0.3049
     13 C          63.6430   90.4453   16.2746 C.3     1  UNL1        0.1079
     14 C          62.8990   89.2586   16.8112 C.3     1  UNL1        0.0903
     15 N          63.1223   87.9007   16.2142 N.3     1  UNL1       -0.2946
     16 C          64.0896   87.7296   15.0807 C.3     1  UNL1        0.0903
     17 C          64.8337   88.9163   14.5441 C.3     1  UNL1        0.1079
     18 H          62.2159   87.5734   15.8798 H       1  UNL1        0.1233
     19 C          62.9139   90.9308   10.0477 C.3     1  UNL1        0.0886
     20 N          61.7906   90.1551   10.6694 N.3     1  UNL1       -0.2679
     21 C          61.7234   88.6662   10.4999 C.3     1  UNL1        0.0978
     22 C          62.4859   87.7703   11.4304 C.3     1  UNL1        0.0224
     23 C          62.4188   86.2814   11.2609 C.3     1  UNL1        0.0065
     24 C          61.5891   85.6884   10.1609 C.3     1  UNL1        0.0277
     25 C          60.8265   86.5844    9.2304 C.ar    1  UNL1       -0.0073
     26 C          59.9967   85.9914    8.1304 C.ar    1  UNL1       -0.0015
     27 C          59.2342   86.8873    7.2000 C.ar    1  UNL1        0.0203
     28 C          59.3014   88.3762    7.3695 C.ar    1  UNL1        0.0985
     29 N          60.1311   88.9692    8.4694 N.ar    1  UNL1       -0.2471
     30 C          60.8936   88.0733    9.3999 C.ar    1  UNL1        0.0695
     31 C          60.7344   90.8683   11.4606 C.3     1  UNL1        0.0724
     32 C          58.9539   89.3368   12.5715 C.3     1  UNL1        0.0015
     33 C          59.3377   90.3236   11.5090 C.3     1  UNL1        0.0173
@<TRIPOS>BOND
     1    32    33    1
     2    33    31    1
     3    31    20    1
     4    20    19    1
     5     1    19    1
     6     1     2    1
     7     2     3    1
     8     3     4   ar
     9     4     5   ar
    10     5     6   ar
    11     6     7   ar
    12     7     8   ar
    13     8    12    1
    14    12    13    1
    15    13    14    1
    16    14    15    1
    17    15    16    1
    18    16    17    1
    19     4     9    1
    20     9    10    1
    21    21    20    1
    22    21    22    1
    23    22    23    1
    24    23    24    1
    25    24    25    1
    26    25    26   ar
    27    26    27   ar
    28    27    28   ar
    29    28    29   ar
    30    29    30   ar
    31    10     1    1
    32    30    21    1
    33     8     3   ar
    34    17    12    1
    35    30    25   ar
    36    15    18    1
    37    10    11    1
@<TRIPOS>MOLECULE
*****
 33 37 0 0 0
SMALL
GASTEIGER

@<TRIPOS>ATOM
      1 C          61.6859   89.2254   11.0436 C.3     1  UNL1        0.0749
      2 C          62.4595   89.1479   12.3264 C.3     1  UNL1        0.0444
      3 C          63.5614   90.1286   12.5980 C.ar    1  UNL1       -0.0101
      4 C          63.8898   91.1868   11.5869 C.ar    1  UNL1       -0.0091
      5 C          64.9918   92.1676   11.8586 C.ar    1  UNL1       -0.0032
      6 C          65.7654   92.0901   13.1414 C.ar    1  UNL1        0.0010
      7 C          65.4370   91.0318   14.1524 C.ar    1  UNL1        0.0142
      8 C          64.3351   90.0511   13.8808 C.ar    1  UNL1        0.0436
      9 C          63.1162   91.2644   10.3042 C.3     1  UNL1        0.0954
     10 N          62.0142   90.2836   10.0325 N.3     1  UNL1       -0.2934
     11 H          62.2572   89.7997    9.1681 H       1  UNL1        0.1236
     12 N          64.0067   88.9929   14.8919 N.pl3   1  UNL1       -0.3049
     13 C          63.2598   89.3553   16.1413 C.3     1  UNL1        0.1079
     14 C          62.9315   88.2970   17.1524 C.3     1  UNL1        0.0903
     15 N          63.3500   86.8764   16.9141 N.3     1  UNL1       -0.2946
     16 C          64.0969   86.5141   15.6648 C.3     1  UNL1        0.0903
     17 C          64.4252   87.5723   14.6537 C.3     1  UNL1        0.1079
     18 H          62.4995   86.3135   16.9224 H       1  UNL1        0.1233
     19 C          60.5838   88.2446   10.7719 C.3     1  UNL1        0.0886
     20 N          60.5743   87.4629    9.4918 N.3     1  UNL1       -0.2679
     21 C          61.5537   86.3453    9.2881 C.3     1  UNL1        0.0978
     22 C          62.0106   85.9913    7.9040 C.3     1  UNL1        0.0224
     23 C          62.9901   84.8737    7.7003 C.3     1  UNL1        0.0065
     24 C          63.5127   84.1100    8.8808 C.3     1  UNL1        0.0277
     25 C          63.0558   84.4639   10.2651 C.ar    1  UNL1       -0.0073
     26 C          63.5784   83.7003   11.4456 C.ar    1  UNL1       -0.0015
     27 C          63.1216   84.0542   12.8297 C.ar    1  UNL1        0.0203
     28 C          62.1421   85.1719   13.0334 C.ar    1  UNL1        0.0985
     29 N          61.6195   85.9356   11.8529 N.ar    1  UNL1       -0.2471
     30 C          62.0763   85.5816   10.4687 C.ar    1  UNL1        0.0695
     31 C          59.5852   87.7989    8.4152 C.3     1  UNL1        0.0724
     32 C          59.3011   89.3728    6.3679 C.3     1  UNL1        0.0015
     33 C          59.5491   89.1815    7.8348 C.3     1  UNL1        0.0173
@<TRIPOS>BOND
     1    32    33    1
     2    33    31    1
     3    31    20    1
     4    20    19    1
     5     1    19    1
     6     1     2    1
     7     2     3    1
     8     3     4   ar
     9     4     5   ar
    10     5     6   ar
    11     6     7   ar
    12     7     8   ar
    13     8    12    1
    14    12    13    1
    15    13    14    1
    16    14    15    1
    17    15    16    1
    18    16    17    1
    19     4     9    1
    20     9    10    1
    21    21    20    1
    22    21    22    1
    23    22    23    1
    24    23    24    1
    25    24    25    1
    26    25    26   ar
    27    26    27   ar
    28    27    28   ar
    29    28    29   ar
    30    29    30   ar
    31    10     1    1
    32    30    21    1
    33     8     3   ar
    34    17    12    1
    35    30    25   ar
    36    15    18    1
    37    10    11    1
@<TRIPOS>MOLECULE
*****
 33 37 0 0 0
SMALL
GASTEIGER

@<TRIPOS>ATOM
      1 C          61.8927   86.8729   10.1932 C.3     1  UNL1        0.0749
      2 C          62.3779   86.2097   11.4481 C.3     1  UNL1        0.0444
      3 C          63.1185   84.9077   11.3701 C.ar    1  UNL1       -0.0101
      4 C          63.3740   84.2689   10.0372 C.ar    1  UNL1       -0.0091
      5 C          64.1147   82.9668    9.9593 C.ar    1  UNL1       -0.0032
      6 C          64.5998   82.3036   11.2142 C.ar    1  UNL1        0.0010
      7 C          64.3443   82.9424   12.5470 C.ar    1  UNL1        0.0142
      8 C          63.6037   84.2445   12.6250 C.ar    1  UNL1        0.0436
      9 C          62.8889   84.9320    8.7823 C.3     1  UNL1        0.0954
     10 N          62.1482   86.2341    8.8603 N.3     1  UNL1       -0.2934
     11 H          61.2373   86.0810    8.4277 H       1  UNL1        0.1236
     12 N          63.3482   84.8833   13.9579 N.pl3   1  UNL1       -0.3049
     13 C          64.2142   86.0154   14.4254 C.3     1  UNL1        0.1079
     14 C          63.9587   86.6542   15.7583 C.3     1  UNL1        0.0903
     15 N          62.8372   86.1610   16.6237 N.3     1  UNL1       -0.2946
     16 C          61.9712   85.0290   16.1562 C.3     1  UNL1        0.0903
     17 C          62.2267   84.3902   14.8233 C.3     1  UNL1        0.1079
     18 H          62.2196   86.9562   16.7869 H       1  UNL1        0.1233
     19 C          61.1520   88.1750   10.2712 C.3     1  UNL1        0.0886
     20 N          61.3473   89.0794   11.4518 N.3     1  UNL1       -0.2679
     21 C          62.4913   90.0494   11.4724 C.3     1  UNL1        0.0978
     22 C          62.9131   90.7386   10.2087 C.3     1  UNL1        0.0224
     23 C          64.0571   91.7086   10.2293 C.3     1  UNL1        0.0065
     24 C          64.7792   91.9894   11.5136 C.3     1  UNL1        0.0277
     25 C          64.3575   91.3002   12.7774 C.ar    1  UNL1       -0.0073
     26 C          65.0797   91.5810   14.0617 C.ar    1  UNL1       -0.0015
     27 C          64.6579   90.8918   15.3255 C.ar    1  UNL1        0.0203
     28 C          63.5139   89.9218   15.3049 C.ar    1  UNL1        0.0985
     29 N          62.7917   89.6410   14.0205 N.ar    1  UNL1       -0.2471
     30 C          63.2135   90.3302   12.7568 C.ar    1  UNL1        0.0695
     31 C          60.3986   89.0139   12.6119 C.3     1  UNL1        0.0724
     32 C          58.9039   90.8795   11.5945 C.3     1  UNL1        0.0015
     33 C          59.0857   89.7366   12.5488 C.3     1  UNL1        0.0173
@<TRIPOS>BOND
     1    32    33    1
     2    33    31    1
     3    31    20    1
     4    20    19    1
     5     1    19    1
     6     1     2    1
     7     2     3    1
     8     3     4   ar
     9     4     5   ar
    10     5     6   ar
    11     6     7   ar
    12     7     8   ar
    13     8    12    1
    14    12    13    1
    15    13    14    1
    16    14    15    1
    17    15    16    1
    18    16    17    1
    19     4     9    1
    20     9    10    1
    21    21    20    1
    22    21    22    1
    23    22    23    1
    24    23    24    1
    25    24    25    1
    26    25    26   ar
    27    26    27   ar
    28    27    28   ar
    29    28    29   ar
    30    29    30   ar
    31    10     1    1
    32    30    21    1
    33     8     3   ar
    34    17    12    1
    35    30    25   ar
    36    15    18    1
    37    10    11    1
@<TRIPOS>MOLECULE
*****
 33 37 0 0 0
SMALL
GASTEIGER

@<TRIPOS>ATOM
      1 C          64.3880   85.8483   14.7065 C.3     1  UNL1        0.0749
      2 C          63.7860   85.3326   13.4331 C.3     1  UNL1        0.0444
      3 C          63.2107   83.9483   13.3823 C.ar    1  UNL1       -0.0101
      4 C          63.2374   83.0797   14.6049 C.ar    1  UNL1       -0.0091
      5 C          62.6621   81.6952   14.5541 C.ar    1  UNL1       -0.0032
      6 C          62.0601   81.1795   13.2807 C.ar    1  UNL1        0.0010
      7 C          62.0334   82.0482   12.0581 C.ar    1  UNL1        0.0142
      8 C          62.6087   83.4325   12.1089 C.ar    1  UNL1        0.0436
      9 C          63.8394   83.5954   15.8784 C.3     1  UNL1        0.0954
     10 N          64.4147   84.9797   15.9292 N.3     1  UNL1       -0.2934
     11 H          65.3933   84.8821   16.1997 H       1  UNL1        0.1236
     12 N          62.5820   84.3011   10.8862 N.pl3   1  UNL1       -0.3049
     13 C          63.4982   84.0053    9.7359 C.3     1  UNL1        0.1079
     14 C          63.4715   84.8739    8.5133 C.3     1  UNL1        0.0903
     15 N          62.5287   86.0384    8.4410 N.3     1  UNL1       -0.2946
     16 C          61.6126   86.3341    9.5913 C.3     1  UNL1        0.0903
     17 C          61.6392   85.4655   10.8139 C.3     1  UNL1        0.1079
     18 H          61.9366   85.8875    7.6243 H       1  UNL1        0.1233
     19 C          64.9633   87.2327   14.7574 C.3     1  UNL1        0.0886
     20 N          64.0527   88.4199   14.8642 N.3     1  UNL1       -0.2679
     21 C          64.3290   89.6522   14.0549 C.3     1  UNL1        0.0978
     22 C          65.3318   90.6576   14.5381 C.3     1  UNL1        0.0224
     23 C          65.6081   91.8900   13.7288 C.3     1  UNL1        0.0065
     24 C          64.8816   92.1169   12.4363 C.3     1  UNL1        0.0277
     25 C          63.8787   91.1115   11.9530 C.ar    1  UNL1       -0.0073
     26 C          63.1522   91.3385   10.6605 C.ar    1  UNL1       -0.0015
     27 C          62.1494   90.3331   10.1773 C.ar    1  UNL1        0.0203
     28 C          61.8731   89.1007   10.9866 C.ar    1  UNL1        0.0985
     29 N          62.5996   88.8738   12.2791 N.ar    1  UNL1       -0.2471
     30 C          63.6024   89.8792   12.7623 C.ar    1  UNL1        0.0695
     31 C          62.8657   88.3747   15.7803 C.3     1  UNL1        0.0724
     32 C          62.6067   86.9001   17.9035 C.3     1  UNL1        0.0015
     33 C          63.0626   88.1727   17.2535 C.3     1  UNL1        0.0173
@<TRIPOS>BOND
     1    32    33    1
     2    33    31    1
     3    31    20    1
     4    20    19    1
     5     1    19    1
     6     1     2    1
     7     2     3    1
     8     3     4   ar
     9     4     5   ar
    10     5     6   ar
    11     6     7   ar
    12     7     8   ar
    13     8    12    1
    14    12    13    1
    15    13    14    1
    16    14    15    1
    17    15    16    1
    18    16    17    1
    19     4     9    1
    20     9    10    1
    21    21    20    1
    22    21    22    1
    23    22    23    1
    24    23    24    1
    25    24    25    1
    26    25    26   ar
    27    26    27   ar
    28    27    28   ar
    29    28    29   ar
    30    29    30   ar
    31    10     1    1
    32    30    21    1
    33     8     3   ar
    34    17    12    1
    35    30    25   ar
    36    15    18    1
    37    10    11    1
@<TRIPOS>MOLECULE
*****
 33 37 0 0 0
SMALL
GASTEIGER

@<TRIPOS>ATOM
      1 C          62.6464   90.2001   10.6525 C.3     1  UNL1        0.0749
      2 C          63.1678   89.9381   12.0344 C.3     1  UNL1        0.0444
      3 C          64.2162   90.8350   12.6230 C.ar    1  UNL1       -0.0101
      4 C          64.7432   91.9938   11.8297 C.ar    1  UNL1       -0.0091
      5 C          65.7917   92.8907   12.4183 C.ar    1  UNL1       -0.0032
      6 C          66.3130   92.6287   13.8002 C.ar    1  UNL1        0.0010
      7 C          65.7860   91.4698   14.5934 C.ar    1  UNL1        0.0142
      8 C          64.7376   90.5730   14.0049 C.ar    1  UNL1        0.0436
      9 C          64.2219   92.2558   10.4479 C.3     1  UNL1        0.0954
     10 N          63.1735   91.3590    9.8593 N.3     1  UNL1       -0.2934
     11 H          63.5644   90.9738    8.9995 H       1  UNL1        0.1236
     12 N          64.2105   89.4141   14.7981 N.pl3   1  UNL1       -0.3049
     13 C          64.5761   88.0118   14.4107 C.3     1  UNL1        0.1079
     14 C          64.0490   86.8530   15.2039 C.3     1  UNL1        0.0903
     15 N          63.1564   87.0964   16.3847 N.3     1  UNL1       -0.2946
     16 C          62.7909   88.4986   16.7721 C.3     1  UNL1        0.0903
     17 C          63.3179   89.6575   15.9788 C.3     1  UNL1        0.1079
     18 H          63.6168   86.6781   17.1930 H       1  UNL1        0.1233
     19 C          61.5980   89.3032   10.0639 C.3     1  UNL1        0.0886
     20 N          61.3265   87.9624   10.6791 N.3     1  UNL1       -0.2679
     21 C          62.0088   86.7391   10.1426 C.3     1  UNL1        0.0978
     22 C          62.3107   86.6304    8.6774 C.3     1  UNL1        0.0224
     23 C          62.9930   85.4070    8.1409 C.3     1  UNL1        0.0065
     24 C          63.3734   84.2923    9.0697 C.3     1  UNL1        0.0277
     25 C          63.0715   84.4009   10.5350 C.ar    1  UNL1       -0.0073
     26 C          63.4519   83.2862   11.4638 C.ar    1  UNL1       -0.0015
     27 C          63.1499   83.3948   12.9290 C.ar    1  UNL1        0.0203
     28 C          62.4676   84.6182   13.4655 C.ar    1  UNL1        0.0985
     29 N          62.0872   85.7329   12.5367 N.ar    1  UNL1       -0.2471
     30 C          62.3892   85.6243   11.0715 C.ar    1  UNL1        0.0695
     31 C          60.3726   87.8450   11.8309 C.3     1  UNL1        0.0724
     32 C          58.3020   88.7776   13.0926 C.3     1  UNL1        0.0015
     33 C          59.4716   88.9926   12.1785 C.3     1  UNL1        0.0173
@<TRIPOS>BOND
     1    32    33    1
     2    33    31    1
     3    31    20    1
     4    20    19    1
     5     1    19    1
     6     1     2    1
     7     2     3    1
     8     3     4   ar
     9     4     5   ar
    10     5     6   ar
    11     6     7   ar
    12     7     8   ar
    13     8    12    1
    14    12    13    1
    15    13    14    1
    16    14    15    1
    17    15    16    1
    18    16    17    1
    19     4     9    1
    20     9    10    1
    21    21    20    1
    22    21    22    1
    23    22    23    1
    24    23    24    1
    25    24    25    1
    26    25    26   ar
    27    26    27   ar
    28    27    28   ar
    29    28    29   ar
    30    29    30   ar
    31    10     1    1
    32    30    21    1
    33     8     3   ar
    34    17    12    1
    35    30    25   ar
    36    15    18    1
    37    10    11    1
@<TRIPOS>MOLECULE
*****
 33 37 0 0 0
SMALL
GASTEIGER

@<TRIPOS>ATOM
      1 C          61.5579   89.5161   12.0414 C.3     1  UNL1        0.0749
      2 C          61.7703   88.1681   11.4189 C.3     1  UNL1        0.0444
      3 C          61.1180   87.8354   10.1098 C.ar    1  UNL1       -0.0101
      4 C          60.2533   88.8507    9.4232 C.ar    1  UNL1       -0.0091
      5 C          59.6009   88.5179    8.1141 C.ar    1  UNL1       -0.0032
      6 C          59.8134   87.1699    7.4915 C.ar    1  UNL1        0.0010
      7 C          60.6781   86.1545    8.1781 C.ar    1  UNL1        0.0142
      8 C          61.3304   86.4872    9.4872 C.ar    1  UNL1        0.0436
      9 C          60.0409   90.1988   10.0457 C.3     1  UNL1        0.0954
     10 N          60.6932   90.5315   11.3548 N.3     1  UNL1       -0.2934
     11 H          59.9440   90.7683   12.0053 H       1  UNL1        0.1236
     12 N          62.1951   85.4719   10.1737 N.pl3   1  UNL1       -0.3049
     13 C          62.0893   85.2770   11.6573 C.3     1  UNL1        0.1079
     14 C          62.9540   84.2617   12.3439 C.3     1  UNL1        0.0903
     15 N          63.9245   83.4412   11.5468 N.3     1  UNL1       -0.2946
     16 C          64.0302   83.6361   10.0633 C.3     1  UNL1        0.0903
     17 C          63.1655   84.6514    9.3768 C.3     1  UNL1        0.1079
     18 H          63.6773   82.4633   11.6985 H       1  UNL1        0.1233
     19 C          62.2102   89.8489   13.3506 C.3     1  UNL1        0.0886
     20 N          63.7050   89.9301   13.4444 N.3     1  UNL1       -0.2679
     21 C          64.4330   91.0901   12.8325 C.3     1  UNL1        0.0978
     22 C          64.2272   91.4255   11.3850 C.3     1  UNL1        0.0224
     23 C          64.9552   92.5855   10.7731 C.3     1  UNL1        0.0065
     24 C          65.8889   93.4101   11.6086 C.3     1  UNL1        0.0277
     25 C          66.0947   93.0747   13.0561 C.ar    1  UNL1       -0.0073
     26 C          67.0285   93.8994   13.8916 C.ar    1  UNL1       -0.0015
     27 C          67.2342   93.5640   15.3390 C.ar    1  UNL1        0.0203
     28 C          66.5063   92.4040   15.9510 C.ar    1  UNL1        0.0985
     29 N          65.5725   91.5794   15.1155 N.ar    1  UNL1       -0.2471
     30 C          65.3668   91.9148   13.6681 C.ar    1  UNL1        0.0695
     31 C          64.4719   88.8514   14.1503 C.3     1  UNL1        0.0724
     32 C          64.6480   86.3844   14.9458 C.3     1  UNL1        0.0015
     33 C          63.9924   87.4312   14.0947 C.3     1  UNL1        0.0173
@<TRIPOS>BOND
     1    32    33    1
     2    33    31    1
     3    31    20    1
     4    20    19    1
     5     1    19    1
     6     1     2    1
     7     2     3    1
     8     3     4   ar
     9     4     5   ar
    10     5     6   ar
    11     6     7   ar
    12     7     8   ar
    13     8    12    1
    14    12    13    1
    15    13    14    1
    16    14    15    1
    17    15    16    1
    18    16    17    1
    19     4     9    1
    20     9    10    1
    21    21    20    1
    22    21    22    1
    23    22    23    1
    24    23    24    1
    25    24    25    1
    26    25    26   ar
    27    26    27   ar
    28    27    28   ar
    29    28    29   ar
    30    29    30   ar
    31    10     1    1
    32    30    21    1
    33     8     3   ar
    34    17    12    1
    35    30    25   ar
    36    15    18    1
    37    10    11    1
@<TRIPOS>MOLECULE
*****
 33 37 0 0 0
SMALL
GASTEIGER

@<TRIPOS>ATOM
      1 C          61.6073   89.6177   12.1182 C.3     1  UNL1        0.0749
      2 C          61.8121   88.2523   11.5319 C.3     1  UNL1        0.0444
      3 C          61.1848   87.8995   10.2159 C.ar    1  UNL1       -0.0101
      4 C          60.3526   88.9120    9.4863 C.ar    1  UNL1       -0.0091
      5 C          59.7252   88.5591    8.1702 C.ar    1  UNL1       -0.0032
      6 C          59.9300   87.1937    7.5839 C.ar    1  UNL1        0.0010
      7 C          60.7622   86.1812    8.3135 C.ar    1  UNL1        0.0142
      8 C          61.3896   86.5341    9.6295 C.ar    1  UNL1        0.0436
      9 C          60.1478   90.2773   10.0726 C.3     1  UNL1        0.0954
     10 N          60.7752   90.6302   11.3886 N.3     1  UNL1       -0.2934
     11 H          60.0152   90.8938   12.0158 H       1  UNL1        0.1236
     12 N          62.2217   85.5216   10.3591 N.pl3   1  UNL1       -0.3049
     13 C          63.1908   84.6619    9.6028 C.3     1  UNL1        0.1079
     14 C          64.0229   83.6494   10.3324 C.3     1  UNL1        0.0903
     15 N          63.8861   83.4966   11.8184 N.3     1  UNL1       -0.2946
     16 C          62.9171   84.3563   12.5746 C.3     1  UNL1        0.0903
     17 C          62.0849   85.3688   11.8450 C.3     1  UNL1        0.1079
     18 H          64.8081   83.6703   12.2184 H       1  UNL1        0.1233
     19 C          62.2347   89.9706   13.4343 C.3     1  UNL1        0.0886
     20 N          63.6988   89.7310   13.6554 N.3     1  UNL1       -0.2679
     21 C          64.6175   90.8881   13.9143 C.3     1  UNL1        0.0978
     22 C          65.1677   91.1155   15.2911 C.3     1  UNL1        0.0224
     23 C          66.0863   92.2727   15.5500 C.3     1  UNL1        0.0065
     24 C          66.4549   93.2024   14.4321 C.3     1  UNL1        0.0277
     25 C          65.9047   92.9751   13.0553 C.ar    1  UNL1       -0.0073
     26 C          66.2733   93.9048   11.9374 C.ar    1  UNL1       -0.0015
     27 C          65.7231   93.6774   10.5606 C.ar    1  UNL1        0.0203
     28 C          64.8044   92.5203   10.3017 C.ar    1  UNL1        0.0985
     29 N          64.4359   91.5905   11.4196 N.ar    1  UNL1       -0.2471
     30 C          64.9860   91.8179   12.7964 C.ar    1  UNL1        0.0695
     31 C          64.2443   88.3341   13.6177 C.3     1  UNL1        0.0724
     32 C          64.8840   86.1367   14.8472 C.3     1  UNL1        0.0015
     33 C          64.2683   87.5043   14.8670 C.3     1  UNL1        0.0173
@<TRIPOS>BOND
     1    32    33    1
     2    33    31    1
     3    31    20    1
     4    20    19    1
     5     1    19    1
     6     1     2    1
     7     2     3    1
     8     3     4   ar
     9     4     5   ar
    10     5     6   ar
    11     6     7   ar
    12     7     8   ar
    13     8    12    1
    14    12    13    1
    15    13    14    1
    16    14    15    1
    17    15    16    1
    18    16    17    1
    19     4     9    1
    20     9    10    1
    21    21    20    1
    22    21    22    1
    23    22    23    1
    24    23    24    1
    25    24    25    1
    26    25    26   ar
    27    26    27   ar
    28    27    28   ar
    29    28    29   ar
    30    29    30   ar
    31    10     1    1
    32    30    21    1
    33     8     3   ar
    34    17    12    1
    35    30    25   ar
    36    15    18    1
    37    10    11    1
