@<TRIPOS>MOLECULE
*****
 33 36 0 0 0
SMALL
GASTEIGER

@<TRIPOS>ATOM
      1 N          63.4328   86.4254   13.0242 N.ar    1  UNL1       -0.2570
      2 C          62.8428   85.6076   11.9137 C.ar    1  UNL1        0.1213
      3 C          62.1684   86.2867   10.7587 C.ar    1  UNL1        0.0935
      4 C          62.0840   87.7838   10.7143 C.ar    1  UNL1        0.2674
      5 O          61.4096   88.4629    9.5593 O.2     1  UNL1       -0.2667
      6 N          62.6739   88.6015   11.8248 N.ar    1  UNL1       -0.2428
      7 C          63.3483   87.9223   12.9797 C.ar    1  UNL1        0.3357
      8 O          63.9383   88.7401   14.0902 O.2     1  UNL1       -0.2461
      9 N          62.9273   84.1107   11.9581 N.pl3   1  UNL1       -0.2930
     10 C          63.4705   83.3548   10.7818 C.3     1  UNL1        0.0922
     11 C          63.5549   81.8579   10.8262 C.3     1  UNL1        0.0229
     12 C          63.0961   81.1167   12.0469 C.3     1  UNL1        0.0190
     13 C          62.5529   81.8725   13.2232 C.3     1  UNL1        0.0709
     14 N          62.0941   81.1313   14.4439 N.3     1  UNL1       -0.3208
     15 C          62.4685   83.3695   13.1788 C.3     1  UNL1        0.1075
     16 H          61.7578   81.7971   15.1396 H       1  UNL1        0.1189
     17 H          62.8732   80.5991   14.8314 H       1  UNL1        0.1189
     18 C          64.1072   85.7462   14.1791 C.3     1  UNL1        0.1879
     19 C          62.7347   86.5670   18.3853 C.3     1  UNL1        0.0900
     20 C          63.1922   86.2934   16.9833 C.1     1  UNL1       -0.0881
     21 C          63.6497   86.0198   15.5812 C.1     1  UNL1       -0.0655
     22 C          62.5895   90.0985   11.7803 C.3     1  UNL1        0.1592
     23 C          63.7363   90.9294   12.2749 C.ar    1  UNL1        0.0820
     24 C          64.6086   91.6607   11.2981 C.ar    1  UNL1        0.0167
     25 C          65.7554   92.4916   11.7927 C.ar    1  UNL1        0.0028
     26 C          66.0298   92.5911   13.2640 C.ar    1  UNL1        0.0199
     27 C          67.1766   93.4220   13.7585 C.ar    1  UNL1        0.0311
     28 C          67.4510   93.5215   15.2298 C.ar    1  UNL1        0.1402
     29 F          68.5977   94.3524   15.7244 F       1  UNL1       -0.2042
     30 C          66.5786   92.7901   16.2066 C.ar    1  UNL1        0.0312
     31 C          65.4318   91.9593   15.7121 C.ar    1  UNL1        0.0214
     32 C          65.1574   91.8598   14.2407 C.ar    1  UNL1        0.0811
     33 N          64.0107   91.0289   13.7462 N.ar    1  UNL1       -0.2477
@<TRIPOS>BOND
     1    19    20    1
     2    20    21    3
     3    21    18    1
     4    18     1    1
     5     1     2   ar
     6     2     9    1
     7     9    10    1
     8    10    11    1
     9    11    12    1
    10    12    13    1
    11    13    14    1
    12    13    15    1
    13     2     3   ar
    14     3     4   ar
    15     4     5    2
    16     4     6   ar
    17     6    22    1
    18    22    23    1
    19    23    24   ar
    20    24    25   ar
    21    25    26   ar
    22    26    27   ar
    23    27    28   ar
    24    28    29    1
    25    28    30   ar
    26    30    31   ar
    27    31    32   ar
    28    32    33   ar
    29     6     7   ar
    30     7     8    2
    31     7     1   ar
    32    15     9    1
    33    33    23   ar
    34    32    26   ar
    35    14    16    1
    36    14    17    1
@<TRIPOS>MOLECULE
*****
 33 36 0 0 0
SMALL
GASTEIGER

@<TRIPOS>ATOM
      1 N          65.4854   92.5461   12.5883 N.ar    1  UNL1       -0.2570
      2 C          65.2966   92.5336   11.1003 C.ar    1  UNL1        0.1213
      3 C          64.3395   91.5634   10.4738 C.ar    1  UNL1        0.0935
      4 C          63.5710   90.6056   11.3353 C.ar    1  UNL1        0.2674
      5 O          62.6139   89.6354   10.7088 O.2     1  UNL1       -0.2667
      6 N          63.7598   90.6181   12.8233 N.ar    1  UNL1       -0.2428
      7 C          64.7170   91.5884   13.4498 C.ar    1  UNL1        0.3357
      8 O          64.9058   91.6009   14.9379 O.2     1  UNL1       -0.2461
      9 N          66.0650   93.4913   10.2387 N.pl3   1  UNL1       -0.2930
     10 C          67.5180   93.2470    9.9571 C.3     1  UNL1        0.0922
     11 C          68.2864   94.2047    9.0956 C.3     1  UNL1        0.0229
     12 C          67.6019   95.4068    8.5156 C.3     1  UNL1        0.0190
     13 C          66.1490   95.6512    8.7972 C.3     1  UNL1        0.0709
     14 N          65.4645   96.8533    8.2172 N.3     1  UNL1       -0.3208
     15 C          65.3805   94.6935    9.6588 C.3     1  UNL1        0.1075
     16 H          64.4871   96.8618    8.5089 H       1  UNL1        0.1189
     17 H          65.5152   96.8153    7.1992 H       1  UNL1        0.1189
     18 C          66.4425   93.5163   13.2148 C.3     1  UNL1        0.1879
     19 C          69.1694   92.1645   16.5294 C.3     1  UNL1        0.0900
     20 C          68.2604   92.6151   15.4246 C.1     1  UNL1       -0.0881
     21 C          67.3515   93.0657   14.3197 C.1     1  UNL1       -0.0655
     22 C          62.9914   89.6604   13.6849 C.3     1  UNL1        0.1592
     23 C          63.3922   88.2160   13.7426 C.ar    1  UNL1        0.0820
     24 C          64.2923   87.7308   14.8401 C.ar    1  UNL1        0.0167
     25 C          64.6931   86.2865   14.8977 C.ar    1  UNL1        0.0028
     26 C          64.1938   85.3275   13.8580 C.ar    1  UNL1        0.0199
     27 C          64.5947   83.8831   13.9157 C.ar    1  UNL1        0.0311
     28 C          64.0954   82.9241   12.8760 C.ar    1  UNL1        0.1402
     29 F          64.4962   81.4798   12.9337 F       1  UNL1       -0.2042
     30 C          63.1953   83.4095   11.7785 C.ar    1  UNL1        0.0312
     31 C          62.7945   84.8537   11.7208 C.ar    1  UNL1        0.0214
     32 C          63.2938   85.8127   12.7606 C.ar    1  UNL1        0.0811
     33 N          62.8930   87.2570   12.7029 N.ar    1  UNL1       -0.2477
@<TRIPOS>BOND
     1    19    20    1
     2    20    21    3
     3    21    18    1
     4    18     1    1
     5     1     2   ar
     6     2     9    1
     7     9    10    1
     8    10    11    1
     9    11    12    1
    10    12    13    1
    11    13    14    1
    12    13    15    1
    13     2     3   ar
    14     3     4   ar
    15     4     5    2
    16     4     6   ar
    17     6    22    1
    18    22    23    1
    19    23    24   ar
    20    24    25   ar
    21    25    26   ar
    22    26    27   ar
    23    27    28   ar
    24    28    29    1
    25    28    30   ar
    26    30    31   ar
    27    31    32   ar
    28    32    33   ar
    29     6     7   ar
    30     7     8    2
    31     7     1   ar
    32    15     9    1
    33    33    23   ar
    34    32    26   ar
    35    14    16    1
    36    14    17    1
@<TRIPOS>MOLECULE
*****
 33 36 0 0 0
SMALL
GASTEIGER

@<TRIPOS>ATOM
      1 N          65.8531   92.6255   13.9546 N.ar    1  UNL1       -0.2570
      2 C          65.3938   92.4081   12.5433 C.ar    1  UNL1        0.1213
      3 C          64.2564   91.4720   12.2605 C.ar    1  UNL1        0.0935
      4 C          63.5782   90.7533   13.3890 C.ar    1  UNL1        0.2674
      5 O          62.4407   89.8172   13.1062 O.2     1  UNL1       -0.2667
      6 N          64.0374   90.9706   14.8003 N.ar    1  UNL1       -0.2428
      7 C          65.1749   91.9068   15.0831 C.ar    1  UNL1        0.3357
      8 O          65.6341   92.1241   16.4945 O.2     1  UNL1       -0.2461
      9 N          66.0720   93.1268   11.4148 N.pl3   1  UNL1       -0.2930
     10 C          65.7877   94.5795   11.1723 C.3     1  UNL1        0.0922
     11 C          66.4659   95.2982   10.0438 C.3     1  UNL1        0.0229
     12 C          67.4283   94.5643    9.1578 C.3     1  UNL1        0.0190
     13 C          67.7126   93.1116    9.4003 C.3     1  UNL1        0.0709
     14 N          68.6750   92.3776    8.5143 N.3     1  UNL1       -0.3208
     15 C          67.0344   92.3928   10.5289 C.3     1  UNL1        0.1075
     16 H          68.7474   91.4075    8.8210 H       1  UNL1        0.1189
     17 H          69.5923   92.8205    8.5682 H       1  UNL1        0.1189
     18 C          66.9905   93.5615   14.2375 C.3     1  UNL1        0.1879
     19 C          70.3319   92.2821   16.9666 C.3     1  UNL1        0.0900
     20 C          69.2181   92.7086   16.0569 C.1     1  UNL1       -0.0881
     21 C          68.1043   93.1350   15.1472 C.1     1  UNL1       -0.0655
     22 C          63.3593   90.2520   15.9288 C.3     1  UNL1        0.1592
     23 C          63.3927   88.7536   15.9916 C.ar    1  UNL1        0.0820
     24 C          62.8864   88.0426   17.2114 C.ar    1  UNL1        0.0167
     25 C          62.9199   86.5443   17.2742 C.ar    1  UNL1        0.0028
     26 C          63.4596   85.7570   16.1171 C.ar    1  UNL1        0.0199
     27 C          63.4931   84.2587   16.1798 C.ar    1  UNL1        0.0311
     28 C          64.0328   83.4714   15.0227 C.ar    1  UNL1        0.1402
     29 F          64.0663   81.9731   15.0855 F       1  UNL1       -0.2042
     30 C          64.5391   84.1825   13.8028 C.ar    1  UNL1        0.0312
     31 C          64.5056   85.6808   13.7401 C.ar    1  UNL1        0.0214
     32 C          63.9659   86.4681   14.8972 C.ar    1  UNL1        0.0811
     33 N          63.9324   87.9663   14.8345 N.ar    1  UNL1       -0.2477
@<TRIPOS>BOND
     1    19    20    1
     2    20    21    3
     3    21    18    1
     4    18     1    1
     5     1     2   ar
     6     2     9    1
     7     9    10    1
     8    10    11    1
     9    11    12    1
    10    12    13    1
    11    13    14    1
    12    13    15    1
    13     2     3   ar
    14     3     4   ar
    15     4     5    2
    16     4     6   ar
    17     6    22    1
    18    22    23    1
    19    23    24   ar
    20    24    25   ar
    21    25    26   ar
    22    26    27   ar
    23    27    28   ar
    24    28    29    1
    25    28    30   ar
    26    30    31   ar
    27    31    32   ar
    28    32    33   ar
    29     6     7   ar
    30     7     8    2
    31     7     1   ar
    32    15     9    1
    33    33    23   ar
    34    32    26   ar
    35    14    16    1
    36    14    17    1
@<TRIPOS>MOLECULE
*****
 33 36 0 0 0
SMALL
GASTEIGER

@<TRIPOS>ATOM
      1 N          62.3844   86.4631   11.4379 N.ar    1  UNL1       -0.2570
      2 C          63.0869   85.6310   12.4694 C.ar    1  UNL1        0.1213
      3 C          63.8276   86.2956   13.5918 C.ar    1  UNL1        0.0935
      4 C          63.8657   87.7924   13.6827 C.ar    1  UNL1        0.2674
      5 O          64.6063   88.4570   14.8051 O.2     1  UNL1       -0.2667
      6 N          63.1632   88.6245   12.6512 N.ar    1  UNL1       -0.2428
      7 C          62.4225   87.9598   11.5288 C.ar    1  UNL1        0.3357
      8 O          61.7200   88.7920   10.4973 O.2     1  UNL1       -0.2461
      9 N          63.0488   84.1342   12.3786 N.pl3   1  UNL1       -0.2930
     10 C          63.5678   83.4438   11.1521 C.3     1  UNL1        0.0922
     11 C          63.5297   81.9471   11.0612 C.3     1  UNL1        0.0229
     12 C          62.9727   81.1407   12.1968 C.3     1  UNL1        0.0190
     13 C          62.4538   81.8310   13.4232 C.3     1  UNL1        0.0709
     14 N          61.8968   81.0246   14.5587 N.3     1  UNL1       -0.3208
     15 C          62.4919   83.3278   13.5141 C.3     1  UNL1        0.1075
     16 H          61.5926   81.6514   15.3037 H       1  UNL1        0.1189
     17 H          62.6173   80.3970   14.9155 H       1  UNL1        0.1189
     18 C          61.6438   85.7985   10.3156 C.3     1  UNL1        0.1879
     19 C          59.1914   88.2691    7.4640 C.3     1  UNL1        0.0900
     20 C          60.0088   87.4456    8.4145 C.1     1  UNL1       -0.0881
     21 C          60.8263   86.6221    9.3650 C.1     1  UNL1       -0.0655
     22 C          63.2013   90.1212   12.7421 C.3     1  UNL1        0.1592
     23 C          64.2138   90.7938   13.6211 C.ar    1  UNL1        0.0820
     24 C          63.8366   91.2210   15.0086 C.ar    1  UNL1        0.0167
     25 C          64.8491   91.8935   15.8875 C.ar    1  UNL1        0.0028
     26 C          66.2388   92.1387   15.3789 C.ar    1  UNL1        0.0199
     27 C          67.2513   92.8112   16.2580 C.ar    1  UNL1        0.0311
     28 C          68.6410   93.0565   15.7494 C.ar    1  UNL1        0.1402
     29 F          69.6535   93.7290   16.6283 F       1  UNL1       -0.2042
     30 C          69.0182   92.6292   14.3618 C.ar    1  UNL1        0.0312
     31 C          68.0057   91.9567   13.4829 C.ar    1  UNL1        0.0214
     32 C          66.6160   91.7115   13.9915 C.ar    1  UNL1        0.0811
     33 N          65.6035   91.0390   13.1125 N.ar    1  UNL1       -0.2477
@<TRIPOS>BOND
     1    19    20    1
     2    20    21    3
     3    21    18    1
     4    18     1    1
     5     1     2   ar
     6     2     9    1
     7     9    10    1
     8    10    11    1
     9    11    12    1
    10    12    13    1
    11    13    14    1
    12    13    15    1
    13     2     3   ar
    14     3     4   ar
    15     4     5    2
    16     4     6   ar
    17     6    22    1
    18    22    23    1
    19    23    24   ar
    20    24    25   ar
    21    25    26   ar
    22    26    27   ar
    23    27    28   ar
    24    28    29    1
    25    28    30   ar
    26    30    31   ar
    27    31    32   ar
    28    32    33   ar
    29     6     7   ar
    30     7     8    2
    31     7     1   ar
    32    15     9    1
    33    33    23   ar
    34    32    26   ar
    35    14    16    1
    36    14    17    1
@<TRIPOS>MOLECULE
*****
 33 36 0 0 0
SMALL
GASTEIGER

@<TRIPOS>ATOM
      1 N          62.1230   86.3628   11.6287 N.ar    1  UNL1       -0.2570
      2 C          63.0778   85.4687   12.3627 C.ar    1  UNL1        0.1213
      3 C          63.9767   86.0382   13.4199 C.ar    1  UNL1        0.0935
      4 C          63.9208   87.5020   13.7430 C.ar    1  UNL1        0.2674
      5 O          64.8197   88.0716   14.8001 O.2     1  UNL1       -0.2667
      6 N          62.9660   88.3962   13.0089 N.ar    1  UNL1       -0.2428
      7 C          62.0670   87.8265   11.9518 C.ar    1  UNL1        0.3357
      8 O          61.1122   88.7207   11.2177 O.2     1  UNL1       -0.2461
      9 N          63.1337   84.0050   12.0397 N.pl3   1  UNL1       -0.2930
     10 C          63.8609   83.5345   10.8150 C.3     1  UNL1        0.0922
     11 C          63.9169   82.0708   10.4919 C.3     1  UNL1        0.0229
     12 C          63.2456   81.0775   11.3934 C.3     1  UNL1        0.0190
     13 C          62.5183   81.5480   12.6181 C.3     1  UNL1        0.0709
     14 N          61.8470   80.5547   13.5196 N.3     1  UNL1       -0.3208
     15 C          62.4624   83.0118   12.9412 C.3     1  UNL1        0.1075
     16 H          61.4050   81.0455   14.2969 H       1  UNL1        0.1189
     17 H          62.5410   79.9005   13.8813 H       1  UNL1        0.1189
     18 C          61.2241   85.7933   10.5716 C.3     1  UNL1        0.1879
     19 C          62.8633   84.8656    6.4848 C.3     1  UNL1        0.0900
     20 C          62.3169   85.1748    7.8470 C.1     1  UNL1       -0.0881
     21 C          61.7705   85.4840    9.2093 C.1     1  UNL1       -0.0655
     22 C          62.9100   89.8599   13.3320 C.3     1  UNL1        0.1592
     23 C          63.6434   90.8463   12.4722 C.ar    1  UNL1        0.0820
     24 C          63.4842   90.8055   10.9812 C.ar    1  UNL1        0.0167
     25 C          64.2176   91.7919   10.1215 C.ar    1  UNL1        0.0028
     26 C          65.1101   92.8191   10.7527 C.ar    1  UNL1        0.0199
     27 C          65.8434   93.8055    9.8929 C.ar    1  UNL1        0.0311
     28 C          66.7359   94.8327   10.5241 C.ar    1  UNL1        0.1402
     29 F          67.4692   95.8190    9.6643 F       1  UNL1       -0.2042
     30 C          66.8950   94.8734   12.0151 C.ar    1  UNL1        0.0312
     31 C          66.1617   93.8870   12.8748 C.ar    1  UNL1        0.0214
     32 C          65.2692   92.8598   12.2436 C.ar    1  UNL1        0.0811
     33 N          64.5359   91.8734   13.1034 N.ar    1  UNL1       -0.2477
@<TRIPOS>BOND
     1    19    20    1
     2    20    21    3
     3    21    18    1
     4    18     1    1
     5     1     2   ar
     6     2     9    1
     7     9    10    1
     8    10    11    1
     9    11    12    1
    10    12    13    1
    11    13    14    1
    12    13    15    1
    13     2     3   ar
    14     3     4   ar
    15     4     5    2
    16     4     6   ar
    17     6    22    1
    18    22    23    1
    19    23    24   ar
    20    24    25   ar
    21    25    26   ar
    22    26    27   ar
    23    27    28   ar
    24    28    29    1
    25    28    30   ar
    26    30    31   ar
    27    31    32   ar
    28    32    33   ar
    29     6     7   ar
    30     7     8    2
    31     7     1   ar
    32    15     9    1
    33    33    23   ar
    34    32    26   ar
    35    14    16    1
    36    14    17    1
@<TRIPOS>MOLECULE
*****
 33 36 0 0 0
SMALL
GASTEIGER

@<TRIPOS>ATOM
      1 N          62.0415   86.7126   11.4216 N.ar    1  UNL1       -0.2570
      2 C          62.8607   85.9954   12.4533 C.ar    1  UNL1        0.1213
      3 C          63.7235   86.7751   13.4006 C.ar    1  UNL1        0.0935
      4 C          63.7672   88.2721   13.3163 C.ar    1  UNL1        0.2674
      5 O          64.6300   89.0519   14.2636 O.2     1  UNL1       -0.2667
      6 N          62.9480   88.9894   12.2845 N.ar    1  UNL1       -0.2428
      7 C          62.0851   88.2095   11.3371 C.ar    1  UNL1        0.3357
      8 O          61.2659   88.9267   10.3054 O.2     1  UNL1       -0.2461
      9 N          62.8171   84.4984   12.5377 N.pl3   1  UNL1       -0.2930
     10 C          62.3863   83.8312   13.8103 C.3     1  UNL1        0.0922
     11 C          62.3426   82.3342   13.8947 C.3     1  UNL1        0.0229
     12 C          62.7298   81.5044   12.7066 C.3     1  UNL1        0.0190
     13 C          63.1607   82.1716   11.4341 C.3     1  UNL1        0.0709
     14 N          63.5479   81.3418   10.2461 N.3     1  UNL1       -0.3208
     15 C          63.2043   83.6686   11.3497 C.3     1  UNL1        0.1075
     16 H          63.8112   81.9547    9.4745 H       1  UNL1        0.1189
     17 H          62.7577   80.7613    9.9647 H       1  UNL1        0.1189
     18 C          61.1787   85.9328   10.4742 C.3     1  UNL1        0.1879
     19 C          62.7385   84.8278    6.4004 C.3     1  UNL1        0.0900
     20 C          62.2186   85.1962    7.7583 C.1     1  UNL1       -0.0881
     21 C          61.6986   85.5645    9.1162 C.1     1  UNL1       -0.0655
     22 C          62.9916   90.4863   12.2001 C.3     1  UNL1        0.1592
     23 C          64.2091   91.2286   12.6657 C.ar    1  UNL1        0.0820
     24 C          65.1474   91.8336   11.6639 C.ar    1  UNL1        0.0167
     25 C          66.3648   92.5758   12.1295 C.ar    1  UNL1        0.0028
     26 C          66.6439   92.7132   13.5969 C.ar    1  UNL1        0.0199
     27 C          67.8615   93.4555   14.0624 C.ar    1  UNL1        0.0311
     28 C          68.1406   93.5929   15.5298 C.ar    1  UNL1        0.1402
     29 F          69.3580   94.3352   15.9954 F       1  UNL1       -0.2042
     30 C          67.2022   92.9879   16.5316 C.ar    1  UNL1        0.0312
     31 C          65.9848   92.2457   16.0660 C.ar    1  UNL1        0.0214
     32 C          65.7056   92.1083   14.5987 C.ar    1  UNL1        0.0811
     33 N          64.4882   91.3660   14.1331 N.ar    1  UNL1       -0.2477
@<TRIPOS>BOND
     1    19    20    1
     2    20    21    3
     3    21    18    1
     4    18     1    1
     5     1     2   ar
     6     2     9    1
     7     9    10    1
     8    10    11    1
     9    11    12    1
    10    12    13    1
    11    13    14    1
    12    13    15    1
    13     2     3   ar
    14     3     4   ar
    15     4     5    2
    16     4     6   ar
    17     6    22    1
    18    22    23    1
    19    23    24   ar
    20    24    25   ar
    21    25    26   ar
    22    26    27   ar
    23    27    28   ar
    24    28    29    1
    25    28    30   ar
    26    30    31   ar
    27    31    32   ar
    28    32    33   ar
    29     6     7   ar
    30     7     8    2
    31     7     1   ar
    32    15     9    1
    33    33    23   ar
    34    32    26   ar
    35    14    16    1
    36    14    17    1
@<TRIPOS>MOLECULE
*****
 33 36 0 0 0
SMALL
GASTEIGER

@<TRIPOS>ATOM
      1 N          58.0703   94.4156   -2.4646 N.ar    1  UNL1       -0.2570
      2 C          57.1790   95.5184   -1.9753 C.ar    1  UNL1        0.1213
      3 C          57.5792   96.3319   -0.7803 C.ar    1  UNL1        0.0935
      4 C          58.8708   96.0425   -0.0745 C.ar    1  UNL1        0.2674
      5 O          59.2711   96.8559    1.1205 O.2     1  UNL1       -0.2667
      6 N          59.7621   94.9396   -0.5637 N.ar    1  UNL1       -0.2428
      7 C          59.3618   94.1262   -1.7588 C.ar    1  UNL1        0.3357
      8 O          60.2531   93.0233   -2.2480 O.2     1  UNL1       -0.2461
      9 N          55.8875   95.8079   -2.6811 N.pl3   1  UNL1       -0.2930
     10 C          55.8962   96.5361   -3.9925 C.3     1  UNL1        0.0922
     11 C          54.6047   96.8255   -4.6982 C.3     1  UNL1        0.0229
     12 C          53.3044   96.3867   -4.0927 C.3     1  UNL1        0.0190
     13 C          53.2956   95.6586   -2.7813 C.3     1  UNL1        0.0709
     14 N          51.9953   95.2198   -2.1758 N.3     1  UNL1       -0.3208
     15 C          54.5872   95.3691   -2.0755 C.3     1  UNL1        0.1075
     16 H          52.1754   94.7437   -1.2919 H       1  UNL1        0.1189
     17 H          51.5206   94.5822   -2.8149 H       1  UNL1        0.1189
     18 C          57.6700   93.6022   -3.6596 C.3     1  UNL1        0.1879
     19 C          55.2324   89.8584   -3.1190 C.3     1  UNL1        0.0900
     20 C          56.0450   91.1063   -3.2992 C.1     1  UNL1       -0.0881
     21 C          56.8575   92.3542   -3.4794 C.1     1  UNL1       -0.0655
     22 C          61.0536   94.6502    0.1421 C.3     1  UNL1        0.1592
     23 C          61.0754   93.7102    1.3109 C.ar    1  UNL1        0.0820
     24 C          62.3583   93.0470    1.7162 C.ar    1  UNL1        0.0167
     25 C          62.3800   92.1071    2.8850 C.ar    1  UNL1        0.0028
     26 C          61.1188   91.8304    3.6484 C.ar    1  UNL1        0.0199
     27 C          61.1405   90.8904    4.8172 C.ar    1  UNL1        0.0311
     28 C          59.8793   90.6136    5.5806 C.ar    1  UNL1        0.1402
     29 F          59.9010   89.6737    6.7493 F       1  UNL1       -0.2042
     30 C          58.5964   91.2769    5.1752 C.ar    1  UNL1        0.0312
     31 C          58.5747   92.2168    4.0064 C.ar    1  UNL1        0.0214
     32 C          59.8359   92.4935    3.2430 C.ar    1  UNL1        0.0811
     33 N          59.8142   93.4335    2.0743 N.ar    1  UNL1       -0.2477
@<TRIPOS>BOND
     1    19    20    1
     2    20    21    3
     3    21    18    1
     4    18     1    1
     5     1     2   ar
     6     2     9    1
     7     9    10    1
     8    10    11    1
     9    11    12    1
    10    12    13    1
    11    13    14    1
    12    13    15    1
    13     2     3   ar
    14     3     4   ar
    15     4     5    2
    16     4     6   ar
    17     6    22    1
    18    22    23    1
    19    23    24   ar
    20    24    25   ar
    21    25    26   ar
    22    26    27   ar
    23    27    28   ar
    24    28    29    1
    25    28    30   ar
    26    30    31   ar
    27    31    32   ar
    28    32    33   ar
    29     6     7   ar
    30     7     8    2
    31     7     1   ar
    32    15     9    1
    33    33    23   ar
    34    32    26   ar
    35    14    16    1
    36    14    17    1
@<TRIPOS>MOLECULE
*****
 33 36 0 0 0
SMALL
GASTEIGER

@<TRIPOS>ATOM
      1 N          58.5851   95.6335   -1.5311 N.ar    1  UNL1       -0.2570
      2 C          58.7555   94.5538   -2.5583 C.ar    1  UNL1        0.1213
      3 C          59.7712   93.4706   -2.3464 C.ar    1  UNL1        0.0935
      4 C          60.6166   93.4671   -1.1073 C.ar    1  UNL1        0.2674
      5 O          61.6324   92.3839   -0.8955 O.2     1  UNL1       -0.2667
      6 N          60.4462   94.5468   -0.0801 N.ar    1  UNL1       -0.2428
      7 C          59.4304   95.6300   -0.2920 C.ar    1  UNL1        0.3357
      8 O          59.2600   96.7098    0.7352 O.2     1  UNL1       -0.2461
      9 N          57.9101   94.5572   -3.7974 N.pl3   1  UNL1       -0.2930
     10 C          56.6972   93.6786   -3.8803 C.3     1  UNL1        0.0922
     11 C          55.8518   93.6820   -5.1193 C.3     1  UNL1        0.0229
     12 C          56.2194   94.5641   -6.2756 C.3     1  UNL1        0.0190
     13 C          57.4322   95.4427   -6.1927 C.3     1  UNL1        0.0709
     14 N          57.7998   96.3247   -7.3490 N.3     1  UNL1       -0.3208
     15 C          58.2777   95.4393   -4.9536 C.3     1  UNL1        0.1075
     16 H          58.6450   96.8486   -7.1217 H       1  UNL1        0.1189
     17 H          57.0367   96.9751   -7.5365 H       1  UNL1        0.1189
     18 C          57.5693   96.7167   -1.7430 C.3     1  UNL1        0.1879
     19 C          53.1783   95.7441   -1.5928 C.3     1  UNL1        0.0900
     20 C          54.6419   96.0683   -1.6429 C.1     1  UNL1       -0.0881
     21 C          56.1056   96.3925   -1.6929 C.1     1  UNL1       -0.0655
     22 C          61.2916   94.5434    1.1589 C.3     1  UNL1        0.1592
     23 C          61.0816   93.4911    2.2072 C.ar    1  UNL1        0.0820
     24 C          62.2275   92.6262    2.6417 C.ar    1  UNL1        0.0167
     25 C          62.0176   91.5740    3.6899 C.ar    1  UNL1        0.0028
     26 C          60.6617   91.3868    4.3036 C.ar    1  UNL1        0.0199
     27 C          60.4518   90.3345    5.3519 C.ar    1  UNL1        0.0311
     28 C          59.0960   90.1473    5.9656 C.ar    1  UNL1        0.1402
     29 F          58.8860   89.0951    7.0138 F       1  UNL1       -0.2042
     30 C          57.9501   91.0123    5.5311 C.ar    1  UNL1        0.0312
     31 C          58.1600   92.0645    4.4829 C.ar    1  UNL1        0.0214
     32 C          59.5159   92.2517    3.8691 C.ar    1  UNL1        0.0811
     33 N          59.7258   93.3039    2.8209 N.ar    1  UNL1       -0.2477
@<TRIPOS>BOND
     1    19    20    1
     2    20    21    3
     3    21    18    1
     4    18     1    1
     5     1     2   ar
     6     2     9    1
     7     9    10    1
     8    10    11    1
     9    11    12    1
    10    12    13    1
    11    13    14    1
    12    13    15    1
    13     2     3   ar
    14     3     4   ar
    15     4     5    2
    16     4     6   ar
    17     6    22    1
    18    22    23    1
    19    23    24   ar
    20    24    25   ar
    21    25    26   ar
    22    26    27   ar
    23    27    28   ar
    24    28    29    1
    25    28    30   ar
    26    30    31   ar
    27    31    32   ar
    28    32    33   ar
    29     6     7   ar
    30     7     8    2
    31     7     1   ar
    32    15     9    1
    33    33    23   ar
    34    32    26   ar
    35    14    16    1
    36    14    17    1
