@<TRIPOS>MOLECULE
*****
 35 39 0 0 0
SMALL
GASTEIGER

@<TRIPOS>ATOM
      1 C          63.5166   83.5183   13.4516 C.3     1  UNL1        0.0741
      2 C          63.4361   83.5862   13.5680 C.3     1  UNL1        0.0904
      3 C          64.7202   84.2553   13.9597 C.3     1  UNL1        0.0386
      4 C          64.7534   85.1832   15.1378 C.3     1  UNL1        0.0594
      5 C          64.3328   85.9926   16.3286 C.3     1  UNL1        0.0174
      6 C          62.8693   85.7557   16.5564 C.3     1  UNL1        0.0174
      7 C          62.3854   84.8000   15.5064 C.3     1  UNL1        0.0594
      8 C          62.1853   83.8451   14.3544 C.3     1  UNL1        0.0386
      9 N          63.5499   84.4462   14.6296 N.3     1  UNL1       -0.2750
     10 C          64.9369   84.0610   10.7093 C.3     1  UNL1        0.0738
     11 C          64.0926   82.8765   11.0759 C.ar    1  UNL1        0.1433
     12 N          63.7900   81.7023   10.1929 N.ar    1  UNL1       -0.1337
     13 N          62.9133   80.7584   10.9612 N.ar    1  UNL1       -0.1337
     14 C          62.6739   81.3492   12.3189 C.ar    1  UNL1        0.1425
     15 N          63.4028   82.6583   12.3899 N.ar    1  UNL1       -0.3039
     16 C          61.8503   80.7382   13.4137 C.3     1  UNL1        0.0588
     17 C          62.3808   79.5676   14.1871 C.3     1  UNL1        0.0080
     18 C          60.4961   81.2979   13.7350 C.3     1  UNL1        0.0080
     19 C          62.6528   83.8393   12.2681 C.3     1  UNL1        0.0419
     20 C          62.5721   85.2478   11.7586 C.3     1  UNL1        0.1014
     21 C          61.9794   85.5243   10.4086 C.ar    1  UNL1        0.0251
     22 C          62.6277   85.2402    9.0861 C.ar    1  UNL1        0.0043
     23 C          61.6833   85.6738    8.0044 C.ar    1  UNL1        0.0072
     24 C          60.4514   86.2258    8.6584 C.ar    1  UNL1        0.0352
     25 S          60.6344   86.1334   10.1443 S.2     1  UNL1       -0.0892
     26 N          63.0840   86.3799   12.5990 N.am    1  UNL1       -0.3017
     27 C          63.0816   87.7781   12.0557 C.2     1  UNL1        0.2222
     28 O          62.5672   88.0441   10.6719 O.2     1  UNL1       -0.2751
     29 H          63.4216   86.2054   13.5072 H       1  UNL1        0.1497
     30 C          63.5935   88.9102   12.8961 C.3     1  UNL1        0.0765
     31 C          63.5736   90.3109   12.3599 C.3     1  UNL1        0.0091
     32 C          64.0855   91.4431   13.2003 C.3     1  UNL1        0.0005
     33 C          64.6173   91.1743   14.5769 C.3     1  UNL1        0.0000
     34 C          64.6372   89.7736   15.1131 C.3     1  UNL1        0.0005
     35 C          64.1253   88.6415   14.2727 C.3     1  UNL1        0.0091
@<TRIPOS>BOND
     1    10    11    1
     2    11    12   ar
     3    12    13   ar
     4    13    14   ar
     5    14    16    1
     6    16    17    1
     7    16    18    1
     8    14    15   ar
     9     2    15    1
    10     2     3    1
    11     4     3    1
    12     4     5    1
    13     5     6    1
    14     7     6    1
    15     7     8    1
    16     7     9    1
    17     9     1    1
    18     1    19    1
    19    20    19    1
    20    20    26    1
    21    26    27   am
    22    27    28    2
    23    27    30    1
    24    30    31    1
    25    31    32    1
    26    32    33    1
    27    33    34    1
    28    34    35    1
    29    20    21    1
    30    21    22   ar
    31    22    23   ar
    32    23    24   ar
    33    24    25   ar
    34    15    11   ar
    35     8     2    1
    36    35    30    1
    37    25    21   ar
    38     9     4    1
    39    26    29    1
@<TRIPOS>MOLECULE
*****
 35 39 0 0 0
SMALL
GASTEIGER

@<TRIPOS>ATOM
      1 C          62.5462   90.2342   12.6535 C.3     1  UNL1        0.0741
      2 C          62.5367   90.2280   12.4968 C.3     1  UNL1        0.0904
      3 C          61.1212   89.7662   12.6787 C.3     1  UNL1        0.0386
      4 C          60.2714   89.4632   11.4805 C.3     1  UNL1        0.0594
      5 C          59.8165   89.2857   10.0622 C.3     1  UNL1        0.0174
      6 C          60.9603   89.6439    9.1603 C.3     1  UNL1        0.0174
      7 C          62.1221   90.0428   10.0212 C.3     1  UNL1        0.0594
      8 C          63.1024   90.3867   11.1166 C.3     1  UNL1        0.0386
      9 N          61.6963   89.9311   11.4552 N.3     1  UNL1       -0.2750
     10 C          61.8930   89.3562   15.5751 C.3     1  UNL1        0.0738
     11 C          63.0908   90.1304   15.1100 C.ar    1  UNL1        0.1433
     12 N          64.2030   90.6397   15.9782 N.ar    1  UNL1       -0.1337
     13 N          65.1861   91.3551   15.0999 N.ar    1  UNL1       -0.1337
     14 C          64.6817   91.2880   13.6889 C.ar    1  UNL1        0.1425
     15 N          63.3867   90.5311   13.6951 N.ar    1  UNL1       -0.3039
     16 C          65.3541   91.8748   12.4833 C.3     1  UNL1        0.0588
     17 C          64.5505   92.6413   11.4750 C.3     1  UNL1        0.0080
     18 C          66.8302   91.6950   12.2858 C.3     1  UNL1        0.0080
     19 C          63.6670   89.3115   13.0307 C.3     1  UNL1        0.0419
     20 C          63.5820   87.8520   12.6954 C.3     1  UNL1        0.1014
     21 C          63.7894   86.8229   13.7668 C.ar    1  UNL1        0.0251
     22 C          64.2392   87.0916   15.1723 C.ar    1  UNL1        0.0043
     23 C          64.3111   85.7791   15.8950 C.ar    1  UNL1        0.0072
     24 C          63.9057   84.6992   14.9361 C.ar    1  UNL1        0.0352
     25 S          63.5832   85.3443   13.6208 S.2     1  UNL1       -0.0892
     26 N          63.2896   87.4214   11.2885 N.am    1  UNL1       -0.3017
     27 C          62.1465   86.4905   11.0113 C.2     1  UNL1        0.2222
     28 O          61.2958   85.9903   12.1409 O.2     1  UNL1       -0.2751
     29 H          63.8480   87.7497   10.5471 H       1  UNL1        0.1497
     30 C          61.8542   86.0600    9.6045 C.3     1  UNL1        0.0765
     31 C          62.9307   85.4239    8.7758 C.3     1  UNL1        0.0091
     32 C          62.6384   84.9933    7.3689 C.3     1  UNL1        0.0005
     33 C          61.2696   85.1988    6.7909 C.3     1  UNL1        0.0000
     34 C          60.1931   85.8349    7.6195 C.3     1  UNL1        0.0005
     35 C          60.4854   86.2655    9.0263 C.3     1  UNL1        0.0091
@<TRIPOS>BOND
     1    10    11    1
     2    11    12   ar
     3    12    13   ar
     4    13    14   ar
     5    14    16    1
     6    16    17    1
     7    16    18    1
     8    14    15   ar
     9     2    15    1
    10     2     3    1
    11     4     3    1
    12     4     5    1
    13     5     6    1
    14     7     6    1
    15     7     8    1
    16     7     9    1
    17     9     1    1
    18     1    19    1
    19    20    19    1
    20    20    26    1
    21    26    27   am
    22    27    28    2
    23    27    30    1
    24    30    31    1
    25    31    32    1
    26    32    33    1
    27    33    34    1
    28    34    35    1
    29    20    21    1
    30    21    22   ar
    31    22    23   ar
    32    23    24   ar
    33    24    25   ar
    34    15    11   ar
    35     8     2    1
    36    35    30    1
    37    25    21   ar
    38     9     4    1
    39    26    29    1
@<TRIPOS>MOLECULE
*****
 35 39 0 0 0
SMALL
GASTEIGER

@<TRIPOS>ATOM
      1 C          61.7169   90.2093   12.3207 C.3     1  UNL1        0.0741
      2 C          61.5684   90.2070   12.2696 C.3     1  UNL1        0.0904
      3 C          61.2462   89.3873   13.4838 C.3     1  UNL1        0.0386
      4 C          59.8407   88.9208   13.7225 C.3     1  UNL1        0.0594
      5 C          58.3682   88.6865   13.5589 C.3     1  UNL1        0.0174
      6 C          57.9288   89.3637   12.2947 C.3     1  UNL1        0.0174
      7 C          59.1297   90.0166   11.6770 C.3     1  UNL1        0.0594
      8 C          60.4850   90.5602   11.2941 C.3     1  UNL1        0.0386
      9 N          60.3114   89.7429   12.5594 N.3     1  UNL1       -0.2750
     10 C          62.7233   91.4741    9.4929 C.3     1  UNL1        0.0738
     11 C          63.5048   91.2559   10.7545 C.ar    1  UNL1        0.1433
     12 N          64.9543   91.5817   10.9614 N.ar    1  UNL1       -0.1337
     13 N          65.3192   91.2007   12.3655 N.ar    1  UNL1       -0.1337
     14 C          64.0954   90.6394   13.0265 C.ar    1  UNL1        0.1425
     15 N          62.9740   90.6734   12.0309 N.ar    1  UNL1       -0.3039
     16 C          64.0082   90.1328   14.4357 C.3     1  UNL1        0.0588
     17 C          63.6412   91.0697   15.5481 C.3     1  UNL1        0.0080
     18 C          64.2879   88.6893   14.7325 C.3     1  UNL1        0.0080
     19 C          62.5845   89.4975   11.3254 C.3     1  UNL1        0.0419
     20 C          62.4376   88.0183   11.1251 C.3     1  UNL1        0.1014
     21 C          61.7302   87.4924    9.9114 C.ar    1  UNL1        0.0251
     22 C          62.3451   86.6650    8.8217 C.ar    1  UNL1        0.0043
     23 C          61.2785   86.3628    7.8113 C.ar    1  UNL1        0.0072
     24 C          60.0044   87.0034    8.2765 C.ar    1  UNL1        0.0352
     25 S          60.2835   87.7015    9.5744 S.2     1  UNL1       -0.0892
     26 N          62.9982   87.0648   12.1384 N.am    1  UNL1       -0.3017
     27 C          62.5520   85.6327   12.1479 C.2     1  UNL1        0.2222
     28 O          61.5453   85.1541   11.1442 O.2     1  UNL1       -0.2751
     29 H          63.6589   87.3789   12.7972 H       1  UNL1        0.1497
     30 C          63.1126   84.6793   13.1612 C.3     1  UNL1        0.0765
     31 C          63.9798   85.1908   14.2730 C.3     1  UNL1        0.0091
     32 C          64.5404   84.2374   15.2863 C.3     1  UNL1        0.0005
     33 C          64.2337   82.7724   15.1877 C.3     1  UNL1        0.0000
     34 C          63.3664   82.2608   14.0759 C.3     1  UNL1        0.0005
     35 C          62.8059   83.2142   13.0626 C.3     1  UNL1        0.0091
@<TRIPOS>BOND
     1    10    11    1
     2    11    12   ar
     3    12    13   ar
     4    13    14   ar
     5    14    16    1
     6    16    17    1
     7    16    18    1
     8    14    15   ar
     9     2    15    1
    10     2     3    1
    11     4     3    1
    12     4     5    1
    13     5     6    1
    14     7     6    1
    15     7     8    1
    16     7     9    1
    17     9     1    1
    18     1    19    1
    19    20    19    1
    20    20    26    1
    21    26    27   am
    22    27    28    2
    23    27    30    1
    24    30    31    1
    25    31    32    1
    26    32    33    1
    27    33    34    1
    28    34    35    1
    29    20    21    1
    30    21    22   ar
    31    22    23   ar
    32    23    24   ar
    33    24    25   ar
    34    15    11   ar
    35     8     2    1
    36    35    30    1
    37    25    21   ar
    38     9     4    1
    39    26    29    1
@<TRIPOS>MOLECULE
*****
 35 39 0 0 0
SMALL
GASTEIGER

@<TRIPOS>ATOM
      1 C          62.5563   90.5296   12.7206 C.3     1  UNL1        0.0741
      2 C          62.4279   90.4541   12.7702 C.3     1  UNL1        0.0904
      3 C          61.8196   90.7771   11.4376 C.3     1  UNL1        0.0386
      4 C          60.4240   90.3275   11.1215 C.3     1  UNL1        0.0594
      5 C          59.0646   89.7045   11.2398 C.3     1  UNL1        0.0174
      6 C          58.9612   89.0719   12.5960 C.3     1  UNL1        0.0174
      7 C          60.2566   89.3040   13.3158 C.3     1  UNL1        0.0594
      8 C          61.6404   89.6815   13.7866 C.3     1  UNL1        0.0386
      9 N          61.1607   90.0800   12.4045 N.3     1  UNL1       -0.2750
     10 C          64.6382   91.5092   10.6135 C.3     1  UNL1        0.0738
     11 C          64.8396   91.3886   12.0951 C.ar    1  UNL1        0.1433
     12 N          66.0922   91.7319   12.8455 N.ar    1  UNL1       -0.1337
     13 N          65.8504   91.4591   14.3004 N.ar    1  UNL1       -0.1337
     14 C          64.4484   90.9472   14.4494 C.ar    1  UNL1        0.1425
     15 N          63.8236   90.9037   13.0864 N.ar    1  UNL1       -0.3039
     16 C          63.7872   90.5488   15.7355 C.3     1  UNL1        0.0588
     17 C          63.3966   91.5976   16.7343 C.3     1  UNL1        0.0080
     18 C          63.5164   89.1017   16.0229 C.3     1  UNL1        0.0080
     19 C          63.6517   89.5177   12.8825 C.3     1  UNL1        0.0419
     20 C          63.4399   88.1041   12.4281 C.3     1  UNL1        0.1014
     21 C          63.8124   86.9632   13.3279 C.ar    1  UNL1        0.0251
     22 C          64.5353   87.0729   14.6376 C.ar    1  UNL1        0.0043
     23 C          64.6971   85.6898   15.1951 C.ar    1  UNL1        0.0072
     24 C          64.0743   84.7252   14.2298 C.ar    1  UNL1        0.0352
     25 S          63.5275   85.5122   13.0758 S.2     1  UNL1       -0.0892
     26 N          62.8554   87.8311   11.0738 N.am    1  UNL1       -0.3017
     27 C          61.7029   86.8816   10.9319 C.2     1  UNL1        0.2222
     28 O          61.1347   86.2051   12.1441 O.2     1  UNL1       -0.2751
     29 H          63.2283   88.2751   10.2782 H       1  UNL1        0.1497
     30 C          61.1185   86.6086    9.5776 C.3     1  UNL1        0.0765
     31 C          61.8695   85.7615    8.5936 C.3     1  UNL1        0.0091
     32 C          61.2851   85.4885    7.2393 C.3     1  UNL1        0.0005
     33 C          59.9497   86.0627    6.8692 C.3     1  UNL1        0.0000
     34 C          59.1987   86.9099    7.8532 C.3     1  UNL1        0.0005
     35 C          59.7831   87.1828    9.2075 C.3     1  UNL1        0.0091
@<TRIPOS>BOND
     1    10    11    1
     2    11    12   ar
     3    12    13   ar
     4    13    14   ar
     5    14    16    1
     6    16    17    1
     7    16    18    1
     8    14    15   ar
     9     2    15    1
    10     2     3    1
    11     4     3    1
    12     4     5    1
    13     5     6    1
    14     7     6    1
    15     7     8    1
    16     7     9    1
    17     9     1    1
    18     1    19    1
    19    20    19    1
    20    20    26    1
    21    26    27   am
    22    27    28    2
    23    27    30    1
    24    30    31    1
    25    31    32    1
    26    32    33    1
    27    33    34    1
    28    34    35    1
    29    20    21    1
    30    21    22   ar
    31    22    23   ar
    32    23    24   ar
    33    24    25   ar
    34    15    11   ar
    35     8     2    1
    36    35    30    1
    37    25    21   ar
    38     9     4    1
    39    26    29    1
@<TRIPOS>MOLECULE
*****
 35 39 0 0 0
SMALL
GASTEIGER

@<TRIPOS>ATOM
      1 C          63.4992   83.7397   12.2733 C.3     1  UNL1        0.0741
      2 C          63.5377   83.7689   12.1239 C.3     1  UNL1        0.0904
      3 C          62.2406   84.5148   12.0179 C.3     1  UNL1        0.0386
      4 C          61.8520   85.1633   10.7224 C.3     1  UNL1        0.0594
      5 C          61.8759   85.6295    9.2969 C.3     1  UNL1        0.0174
      6 C          63.1492   85.1425    8.6712 C.3     1  UNL1        0.0174
      7 C          63.9123   84.3754    9.7100 C.3     1  UNL1        0.0594
      8 C          64.4461   83.6714   10.9342 C.3     1  UNL1        0.0386
      9 N          63.1106   84.3882   10.9777 N.3     1  UNL1       -0.2750
     10 C          65.8961   84.7768   14.1417 C.3     1  UNL1        0.0738
     11 C          65.0104   83.5837   14.3470 C.ar    1  UNL1        0.1433
     12 N          65.0532   82.6445   15.5157 N.ar    1  UNL1       -0.1337
     13 N          63.9956   81.6008   15.3105 N.ar    1  UNL1       -0.1337
     14 C          63.2992   81.8949   14.0151 C.ar    1  UNL1        0.1425
     15 N          63.9263   83.1204   13.4195 N.ar    1  UNL1       -0.3039
     16 C          62.1733   81.1026   13.4196 C.3     1  UNL1        0.0588
     17 C          62.3958   80.3079   12.1670 C.3     1  UNL1        0.0080
     18 C          60.8248   81.1049   14.0766 C.3     1  UNL1        0.0080
     19 C          64.1249   84.5581   13.3636 C.3     1  UNL1        0.0419
     20 C          63.4698   85.8288   13.8175 C.3     1  UNL1        0.1014
     21 C          63.1027   86.0093   15.2607 C.ar    1  UNL1        0.0251
     22 C          63.5771   87.1121   16.1599 C.ar    1  UNL1        0.0043
     23 C          62.9643   86.9030   17.5129 C.ar    1  UNL1        0.0072
     24 C          62.1110   85.6710   17.4499 C.ar    1  UNL1        0.0352
     25 S          62.1965   85.1186   16.0579 S.2     1  UNL1       -0.0892
     26 N          63.1817   86.9191   12.8284 N.am    1  UNL1       -0.3017
     27 C          63.7374   88.2952   13.0460 C.2     1  UNL1        0.2222
     28 O          64.5813   88.5812   14.2527 O.2     1  UNL1       -0.2751
     29 H          62.6279   86.7314   12.0363 H       1  UNL1        0.1497
     30 C          63.4493   89.3854   12.0568 C.3     1  UNL1        0.0765
     31 C          64.0590   90.7438   12.2391 C.3     1  UNL1        0.0091
     32 C          63.7709   91.8341   11.2499 C.3     1  UNL1        0.0005
     33 C          62.8731   91.5659   10.0786 C.3     1  UNL1        0.0000
     34 C          62.2634   90.2075    9.8963 C.3     1  UNL1        0.0005
     35 C          62.5516   89.1173   10.8854 C.3     1  UNL1        0.0091
@<TRIPOS>BOND
     1    10    11    1
     2    11    12   ar
     3    12    13   ar
     4    13    14   ar
     5    14    16    1
     6    16    17    1
     7    16    18    1
     8    14    15   ar
     9     2    15    1
    10     2     3    1
    11     4     3    1
    12     4     5    1
    13     5     6    1
    14     7     6    1
    15     7     8    1
    16     7     9    1
    17     9     1    1
    18     1    19    1
    19    20    19    1
    20    20    26    1
    21    26    27   am
    22    27    28    2
    23    27    30    1
    24    30    31    1
    25    31    32    1
    26    32    33    1
    27    33    34    1
    28    34    35    1
    29    20    21    1
    30    21    22   ar
    31    22    23   ar
    32    23    24   ar
    33    24    25   ar
    34    15    11   ar
    35     8     2    1
    36    35    30    1
    37    25    21   ar
    38     9     4    1
    39    26    29    1
@<TRIPOS>MOLECULE
*****
 35 39 0 0 0
SMALL
GASTEIGER

@<TRIPOS>ATOM
      1 C          63.7438   89.9361   14.0625 C.3     1  UNL1        0.0741
      2 C          63.7843   89.7960   14.1208 C.3     1  UNL1        0.0904
      3 C          62.8054   90.0610   15.2261 C.3     1  UNL1        0.0386
      4 C          62.6067   89.0449   16.3115 C.3     1  UNL1        0.0594
      5 C          62.7314   87.8028   17.1430 C.3     1  UNL1        0.0174
      6 C          63.7469   86.9102   16.4934 C.3     1  UNL1        0.0174
      7 C          64.2497   87.6006   15.2603 C.3     1  UNL1        0.0594
      8 C          64.5643   88.5149   14.1009 C.3     1  UNL1        0.0386
      9 N          63.5451   88.9200   15.1479 N.3     1  UNL1       -0.2750
     10 C          61.5294   90.7770   11.9753 C.3     1  UNL1        0.0738
     11 C          62.9467   91.2630   12.0492 C.ar    1  UNL1        0.1433
     12 N          63.5763   92.2852   11.1499 N.ar    1  UNL1       -0.1337
     13 N          65.0017   92.4660   11.5802 N.ar    1  UNL1       -0.1337
     14 C          65.2532   91.5556   12.7455 C.ar    1  UNL1        0.1425
     15 N          63.9831   90.8121   13.0353 N.ar    1  UNL1       -0.3039
     16 C          66.5475   91.4136   13.4902 C.3     1  UNL1        0.0588
     17 C          67.8492   91.4525   12.7459 C.3     1  UNL1        0.0080
     18 C          66.5401   91.2327   14.9793 C.3     1  UNL1        0.0080
     19 C          63.7860   89.5020   12.6273 C.3     1  UNL1        0.0419
     20 C          62.9921   88.3103   12.1806 C.3     1  UNL1        0.1014
     21 C          61.9681   88.4557   11.0943 C.ar    1  UNL1        0.0251
     22 C          62.2308   88.9144    9.6905 C.ar    1  UNL1        0.0043
     23 C          60.9265   88.9100    8.9497 C.ar    1  UNL1        0.0072
     24 C          59.8577   88.4485    9.8955 C.ar    1  UNL1        0.0352
     25 S          60.5014   88.1677   11.2210 S.2     1  UNL1       -0.0892
     26 N          63.2221   86.9731   12.8203 N.am    1  UNL1       -0.3017
     27 C          63.0151   85.7168   12.0274 C.2     1  UNL1        0.2222
     28 O          62.5779   85.7976   10.5948 O.2     1  UNL1       -0.2751
     29 H          63.5090   86.9201   13.7606 H       1  UNL1        0.1497
     30 C          63.2451   84.3797   12.6671 C.3     1  UNL1        0.0765
     31 C          62.7954   83.1287   11.9724 C.3     1  UNL1        0.0091
     32 C          63.0254   81.7915   12.6121 C.3     1  UNL1        0.0005
     33 C          63.7052   81.7055   13.9465 C.3     1  UNL1        0.0000
     34 C          64.1549   82.9566   14.6411 C.3     1  UNL1        0.0005
     35 C          63.9249   84.2937   14.0015 C.3     1  UNL1        0.0091
@<TRIPOS>BOND
     1    10    11    1
     2    11    12   ar
     3    12    13   ar
     4    13    14   ar
     5    14    16    1
     6    16    17    1
     7    16    18    1
     8    14    15   ar
     9     2    15    1
    10     2     3    1
    11     4     3    1
    12     4     5    1
    13     5     6    1
    14     7     6    1
    15     7     8    1
    16     7     9    1
    17     9     1    1
    18     1    19    1
    19    20    19    1
    20    20    26    1
    21    26    27   am
    22    27    28    2
    23    27    30    1
    24    30    31    1
    25    31    32    1
    26    32    33    1
    27    33    34    1
    28    34    35    1
    29    20    21    1
    30    21    22   ar
    31    22    23   ar
    32    23    24   ar
    33    24    25   ar
    34    15    11   ar
    35     8     2    1
    36    35    30    1
    37    25    21   ar
    38     9     4    1
    39    26    29    1
