@<TRIPOS>MOLECULE
*****
 28 31 0 0 0
SMALL
GASTEIGER

@<TRIPOS>ATOM
      1 C          64.9097   90.4372   14.3704 C.ar    1  UNL1        0.0516
      2 C          64.0651   90.8139   13.1893 C.ar    1  UNL1        0.0147
      3 C          64.5179   91.9003   12.2595 C.ar    1  UNL1        0.0010
      4 C          65.8154   92.6100   12.5106 C.ar    1  UNL1       -0.0014
      5 C          66.6601   92.2332   13.6915 C.ar    1  UNL1        0.0010
      6 C          66.2072   91.1468   14.6214 C.ar    1  UNL1        0.0147
      7 C          66.2682   93.6964   11.5806 C.2     1  UNL1        0.0158
      8 C          65.8374   95.1136   11.8168 C.2     1  UNL1        0.0487
      9 C          66.2902   96.1999   10.8869 C.2     1  UNL1        0.2355
     10 N          67.1738   95.8691    9.7208 N.2     1  UNL1       -0.0325
     11 C          67.6047   94.4519    9.4847 C.2     1  UNL1        0.3799
     12 N          68.4664   93.8278    8.4274 N.2     1  UNL1       -0.0106
     13 C          68.5462   92.3557    8.7038 C.2     1  UNL1        0.3351
     14 N          67.7338   92.0699    9.9320 N.2     1  UNL1       -0.2103
     15 C          67.1519   93.3655   10.4146 C.3     1  UNL1        0.2404
     16 O          64.2970   87.7033   13.2976 O.2     1  UNL1       -0.2522
     17 C          64.1505   87.9838   14.7639 C.2     1  UNL1        0.3082
     18 N          64.4569   89.3508   15.3002 N.am    1  UNL1       -0.2681
     19 N          63.6977   86.8975   15.6937 N.am    1  UNL1       -0.2680
     20 H          64.3608   89.5350   16.2625 H       1  UNL1        0.1564
     21 H          63.6016   87.0816   16.6561 H       1  UNL1        0.1564
     22 C          63.3913   85.5305   15.1574 C.ar    1  UNL1        0.0524
     23 C          62.3837   84.6617   15.8500 C.ar    1  UNL1        0.0148
     24 C          62.0773   83.2948   15.3138 C.ar    1  UNL1        0.0021
     25 C          62.7785   82.7966   14.0849 C.ar    1  UNL1        0.0115
     26 C          63.7862   83.6655   13.3922 C.ar    1  UNL1        0.0589
     27 CL         64.4874   83.1675   12.1634 Cl      1  UNL1       -0.0822
     28 C          64.0926   85.0325   13.9285 C.ar    1  UNL1        0.0261
@<TRIPOS>BOND
     1    16    17    2
     2    17    18   am
     3    18     1    1
     4     1     2   ar
     5     2     3   ar
     6     3     4   ar
     7     4     7    1
     8     7     8    2
     9     8     9    1
    10     9    10    2
    11    10    11    1
    12    11    12    2
    13    12    13    1
    14    13    14    2
    15    14    15    1
    16     4     5   ar
    17     5     6   ar
    18    17    19   am
    19    19    22    1
    20    22    23   ar
    21    23    24   ar
    22    24    25   ar
    23    25    26   ar
    24    26    27    1
    25    26    28   ar
    26     6     1   ar
    27    28    22   ar
    28    15     7    1
    29    15    11    1
    30    18    20    1
    31    19    21    1
@<TRIPOS>MOLECULE
*****
 28 31 0 0 0
SMALL
GASTEIGER

@<TRIPOS>ATOM
      1 C          63.5562   87.4734   15.6310 C.ar    1  UNL1        0.0516
      2 C          64.5722   87.5982   14.5344 C.ar    1  UNL1        0.0147
      3 C          65.1751   88.9349   14.2191 C.ar    1  UNL1        0.0010
      4 C          64.7621   90.1471   15.0004 C.ar    1  UNL1       -0.0014
      5 C          63.7462   90.0224   16.0969 C.ar    1  UNL1        0.0010
      6 C          63.1433   88.6855   16.4122 C.ar    1  UNL1        0.0147
      7 C          65.3651   91.4839   14.6850 C.2     1  UNL1        0.0158
      8 C          66.0394   92.2762   15.7655 C.2     1  UNL1        0.0487
      9 C          66.6423   93.6129   15.4502 C.2     1  UNL1        0.2355
     10 N          66.5710   94.1575   14.0543 N.2     1  UNL1       -0.0325
     11 C          65.8966   93.3652   12.9738 C.2     1  UNL1        0.3799
     12 N          65.6735   93.6422   11.5166 N.2     1  UNL1       -0.0106
     13 C          64.9326   92.4767   10.9314 C.2     1  UNL1        0.3351
     14 N          64.6979   91.4792   12.0268 N.2     1  UNL1       -0.2103
     15 C          65.2937   92.0284   13.2892 C.3     1  UNL1        0.2404
     16 O          63.6569   85.2662   13.6017 O.2     1  UNL1       -0.2522
     17 C          63.0036   85.0330   14.9317 C.2     1  UNL1        0.3082
     18 N          62.9533   86.1367   15.9463 N.am    1  UNL1       -0.2681
     19 N          62.4007   83.6963   15.2470 N.am    1  UNL1       -0.2680
     20 H          62.5245   85.9837   16.8192 H       1  UNL1        0.1564
     21 H          61.9720   83.5433   16.1199 H       1  UNL1        0.1564
     22 C          62.4511   82.5926   14.2323 C.ar    1  UNL1        0.0524
     23 C          61.8387   81.2592   14.5437 C.ar    1  UNL1        0.0148
     24 C          61.8890   80.1555   13.5291 C.ar    1  UNL1        0.0021
     25 C          62.5516   80.3853   12.2032 C.ar    1  UNL1        0.0115
     26 C          63.1640   81.7188   11.8918 C.ar    1  UNL1        0.0589
     27 CL         63.8267   81.9485   10.5660 Cl      1  UNL1       -0.0822
     28 C          63.1137   82.8225   12.9065 C.ar    1  UNL1        0.0261
@<TRIPOS>BOND
     1    16    17    2
     2    17    18   am
     3    18     1    1
     4     1     2   ar
     5     2     3   ar
     6     3     4   ar
     7     4     7    1
     8     7     8    2
     9     8     9    1
    10     9    10    2
    11    10    11    1
    12    11    12    2
    13    12    13    1
    14    13    14    2
    15    14    15    1
    16     4     5   ar
    17     5     6   ar
    18    17    19   am
    19    19    22    1
    20    22    23   ar
    21    23    24   ar
    22    24    25   ar
    23    25    26   ar
    24    26    27    1
    25    26    28   ar
    26     6     1   ar
    27    28    22   ar
    28    15     7    1
    29    15    11    1
    30    18    20    1
    31    19    21    1
@<TRIPOS>MOLECULE
*****
 28 31 0 0 0
SMALL
GASTEIGER

@<TRIPOS>ATOM
      1 C          64.2439   90.1147   13.3998 C.ar    1  UNL1        0.0516
      2 C          64.6267   89.0852   14.4215 C.ar    1  UNL1        0.0147
      3 C          64.2454   87.6489   14.2182 C.ar    1  UNL1        0.0010
      4 C          63.4812   87.2419   12.9932 C.ar    1  UNL1       -0.0014
      5 C          63.0984   88.2713   11.9716 C.ar    1  UNL1        0.0010
      6 C          63.4798   89.7077   12.1749 C.ar    1  UNL1        0.0147
      7 C          63.0999   85.8055   12.7899 C.2     1  UNL1        0.0158
      8 C          62.7461   85.3102   11.4190 C.2     1  UNL1        0.0487
      9 C          62.3648   83.8739   11.2157 C.2     1  UNL1        0.2355
     10 N          62.3372   82.9327   12.3833 N.2     1  UNL1       -0.0325
     11 C          62.6909   83.4279   13.7543 C.2     1  UNL1        0.3799
     12 N          62.7522   82.7392   15.0854 N.2     1  UNL1       -0.0106
     13 C          63.1714   83.7500   16.1114 C.2     1  UNL1        0.3351
     14 N          63.3692   85.0634   15.4144 N.2     1  UNL1       -0.2103
     15 C          63.0723   84.8643   13.9576 C.3     1  UNL1        0.2404
     16 O          65.4092   91.6930   11.1302 O.2     1  UNL1       -0.2522
     17 C          65.2079   92.3403   12.4683 C.2     1  UNL1        0.3082
     18 N          64.6252   91.5511   13.6031 N.am    1  UNL1       -0.2681
     19 N          65.5892   93.7766   12.6716 N.am    1  UNL1       -0.2680
     20 H          64.4931   91.9759   14.4814 H       1  UNL1        0.1564
     21 H          65.4571   94.2014   13.5499 H       1  UNL1        0.1564
     22 C          66.1719   94.5658   11.5368 C.ar    1  UNL1        0.0524
     23 C          66.0814   96.0631   11.5403 C.ar    1  UNL1        0.0148
     24 C          66.6640   96.8523   10.4056 C.ar    1  UNL1        0.0021
     25 C          67.3371   96.1443    9.2673 C.ar    1  UNL1        0.0115
     26 C          67.4276   94.6469    9.2638 C.ar    1  UNL1        0.0589
     27 CL         68.1007   93.9389    8.1256 Cl      1  UNL1       -0.0822
     28 C          66.8449   93.8577   10.3986 C.ar    1  UNL1        0.0261
@<TRIPOS>BOND
     1    16    17    2
     2    17    18   am
     3    18     1    1
     4     1     2   ar
     5     2     3   ar
     6     3     4   ar
     7     4     7    1
     8     7     8    2
     9     8     9    1
    10     9    10    2
    11    10    11    1
    12    11    12    2
    13    12    13    1
    14    13    14    2
    15    14    15    1
    16     4     5   ar
    17     5     6   ar
    18    17    19   am
    19    19    22    1
    20    22    23   ar
    21    23    24   ar
    22    24    25   ar
    23    25    26   ar
    24    26    27    1
    25    26    28   ar
    26     6     1   ar
    27    28    22   ar
    28    15     7    1
    29    15    11    1
    30    18    20    1
    31    19    21    1
@<TRIPOS>MOLECULE
*****
 28 31 0 0 0
SMALL
GASTEIGER

@<TRIPOS>ATOM
      1 C          62.7440   88.5734   11.5940 C.ar    1  UNL1        0.0516
      2 C          62.8080   89.5410   10.4495 C.ar    1  UNL1        0.0147
      3 C          63.5766   90.8211   10.5918 C.ar    1  UNL1        0.0010
      4 C          64.2812   91.1339   11.8786 C.ar    1  UNL1       -0.0014
      5 C          64.2172   90.1664   13.0231 C.ar    1  UNL1        0.0010
      6 C          63.4486   88.8861   12.8807 C.ar    1  UNL1        0.0147
      7 C          65.0498   92.4142   12.0209 C.2     1  UNL1        0.0158
      8 C          65.1045   93.3868   10.8802 C.2     1  UNL1        0.0487
      9 C          65.8731   94.6669   11.0225 C.2     1  UNL1        0.2355
     10 N          66.5869   94.9747   12.3054 N.2     1  UNL1       -0.0325
     11 C          66.5322   94.0021   13.4460 C.2     1  UNL1        0.3799
     12 N          67.1316   94.0326   14.8207 N.2     1  UNL1       -0.0106
     13 C          66.7334   92.7713   15.5280 C.2     1  UNL1        0.3351
     14 N          65.8880   91.9611   14.5905 N.2     1  UNL1       -0.2103
     15 C          65.7636   92.7218   13.3037 C.3     1  UNL1        0.2404
     16 O          63.8464   86.0273   12.7351 O.2     1  UNL1       -0.2522
     17 C          62.5266   86.0201   12.0222 C.2     1  UNL1        0.3082
     18 N          61.9755   87.2932   11.4517 N.am    1  UNL1       -0.2681
     19 N          61.7581   84.7399   11.8800 N.am    1  UNL1       -0.2680
     20 H          61.1092   87.2885   10.9838 H       1  UNL1        0.1564
     21 H          60.8919   84.7352   11.4121 H       1  UNL1        0.1564
     22 C          62.3093   83.4668   12.4505 C.ar    1  UNL1        0.0524
     23 C          62.8253   83.4377   13.8586 C.ar    1  UNL1        0.0148
     24 C          63.3765   82.1646   14.4292 C.ar    1  UNL1        0.0021
     25 C          63.4116   80.9207   13.5917 C.ar    1  UNL1        0.0115
     26 C          62.8955   80.9498   12.1835 C.ar    1  UNL1        0.0589
     27 CL         62.9306   79.7060   11.3460 Cl      1  UNL1       -0.0822
     28 C          62.3443   82.2230   11.6129 C.ar    1  UNL1        0.0261
@<TRIPOS>BOND
     1    16    17    2
     2    17    18   am
     3    18     1    1
     4     1     2   ar
     5     2     3   ar
     6     3     4   ar
     7     4     7    1
     8     7     8    2
     9     8     9    1
    10     9    10    2
    11    10    11    1
    12    11    12    2
    13    12    13    1
    14    13    14    2
    15    14    15    1
    16     4     5   ar
    17     5     6   ar
    18    17    19   am
    19    19    22    1
    20    22    23   ar
    21    23    24   ar
    22    24    25   ar
    23    25    26   ar
    24    26    27    1
    25    26    28   ar
    26     6     1   ar
    27    28    22   ar
    28    15     7    1
    29    15    11    1
    30    18    20    1
    31    19    21    1
@<TRIPOS>MOLECULE
*****
 28 31 0 0 0
SMALL
GASTEIGER

@<TRIPOS>ATOM
      1 C          63.0278   88.1441   12.2974 C.ar    1  UNL1        0.0516
      2 C          63.0211   89.3997   11.4767 C.ar    1  UNL1        0.0147
      3 C          63.8006   90.5975   11.9319 C.ar    1  UNL1        0.0010
      4 C          64.5870   90.5399   13.2080 C.ar    1  UNL1       -0.0014
      5 C          64.5938   89.2844   14.0288 C.ar    1  UNL1        0.0010
      6 C          63.8142   88.0865   13.5734 C.ar    1  UNL1        0.0147
      7 C          65.3666   91.7378   13.6633 C.2     1  UNL1        0.0158
      8 C          65.8639   91.8163   15.0763 C.2     1  UNL1        0.0487
      9 C          66.6434   93.0141   15.5315 C.2     1  UNL1        0.2355
     10 N          66.9258   94.1337   14.5738 N.2     1  UNL1       -0.0325
     11 C          66.4285   94.0551   13.1609 C.2     1  UNL1        0.3799
     12 N          66.5514   94.9969   11.9999 N.2     1  UNL1       -0.0106
     13 C          65.8477   94.3810   10.8270 C.2     1  UNL1        0.3351
     14 N          65.2899   93.0586   11.2632 N.2     1  UNL1       -0.2103
     15 C          65.6489   92.8572   12.7056 C.3     1  UNL1        0.2404
     16 O          63.8229   85.4002   13.2134 O.2     1  UNL1       -0.2522
     17 C          62.6458   85.5743   12.3001 C.2     1  UNL1        0.3082
     18 N          62.2483   86.9463   11.8421 N.am    1  UNL1       -0.2681
     19 N          61.8663   84.3764   11.8448 N.am    1  UNL1       -0.2680
     20 H          61.4757   87.0605   11.2427 H       1  UNL1        0.1564
     21 H          61.0937   84.4907   11.2454 H       1  UNL1        0.1564
     22 C          62.2638   83.0044   12.3028 C.ar    1  UNL1        0.0524
     23 C          62.4467   82.7257   13.7653 C.ar    1  UNL1        0.0148
     24 C          62.8442   81.3537   14.2233 C.ar    1  UNL1        0.0021
     25 C          63.0588   80.2606   13.2188 C.ar    1  UNL1        0.0115
     26 C          62.8759   80.5393   11.7563 C.ar    1  UNL1        0.0589
     27 CL         63.0904   79.4462   10.7519 Cl      1  UNL1       -0.0822
     28 C          62.4783   81.9114   11.2983 C.ar    1  UNL1        0.0261
@<TRIPOS>BOND
     1    16    17    2
     2    17    18   am
     3    18     1    1
     4     1     2   ar
     5     2     3   ar
     6     3     4   ar
     7     4     7    1
     8     7     8    2
     9     8     9    1
    10     9    10    2
    11    10    11    1
    12    11    12    2
    13    12    13    1
    14    13    14    2
    15    14    15    1
    16     4     5   ar
    17     5     6   ar
    18    17    19   am
    19    19    22    1
    20    22    23   ar
    21    23    24   ar
    22    24    25   ar
    23    25    26   ar
    24    26    27    1
    25    26    28   ar
    26     6     1   ar
    27    28    22   ar
    28    15     7    1
    29    15    11    1
    30    18    20    1
    31    19    21    1
@<TRIPOS>MOLECULE
*****
 28 31 0 0 0
SMALL
GASTEIGER

@<TRIPOS>ATOM
      1 C          64.2907   90.4219   13.6127 C.ar    1  UNL1        0.0516
      2 C          64.8669   89.6773   14.7805 C.ar    1  UNL1        0.0147
      3 C          64.6897   88.1914   14.8839 C.ar    1  UNL1        0.0010
      4 C          63.9363   87.4500   13.8195 C.ar    1  UNL1       -0.0014
      5 C          63.3601   88.1946   12.6517 C.ar    1  UNL1        0.0010
      6 C          63.5373   89.6805   12.5484 C.ar    1  UNL1        0.0147
      7 C          63.7591   85.9641   13.9229 C.2     1  UNL1        0.0158
      8 C          64.1208   85.2523   15.1927 C.2     1  UNL1        0.0487
      9 C          63.9437   83.7665   15.2961 C.2     1  UNL1        0.2355
     10 N          63.4048   82.9923   14.1297 N.2     1  UNL1       -0.0325
     11 C          63.0431   83.7042   12.8599 C.2     1  UNL1        0.3799
     12 N          62.4938   83.2108   11.5542 N.2     1  UNL1       -0.0106
     13 C          62.3316   84.3918   10.6438 C.2     1  UNL1        0.3351
     14 N          62.7805   85.6151   11.3869 N.2     1  UNL1       -0.2103
     15 C          63.2203   85.1901   12.7565 C.3     1  UNL1        0.2404
     16 O          65.7857   91.5963   11.2920 O.2     1  UNL1       -0.2522
     17 C          65.2154   92.4950   12.3489 C.2     1  UNL1        0.3082
     18 N          64.4679   91.9077   13.5093 N.am    1  UNL1       -0.2681
     19 N          65.3926   93.9808   12.2455 N.am    1  UNL1       -0.2680
     20 H          64.0935   92.4975   14.2030 H       1  UNL1        0.1564
     21 H          65.0182   94.5707   12.9392 H       1  UNL1        0.1564
     22 C          66.1401   94.5681   11.0852 C.ar    1  UNL1        0.0524
     23 C          66.0952   96.0465   10.8350 C.ar    1  UNL1        0.0148
     24 C          66.8427   96.6338    9.6747 C.ar    1  UNL1        0.0021
     25 C          67.6350   95.7428    8.7645 C.ar    1  UNL1        0.0115
     26 C          67.6799   94.2644    9.0147 C.ar    1  UNL1        0.0589
     27 CL         68.4721   93.3735    8.1046 Cl      1  UNL1       -0.0822
     28 C          66.9324   93.6771   10.1751 C.ar    1  UNL1        0.0261
@<TRIPOS>BOND
     1    16    17    2
     2    17    18   am
     3    18     1    1
     4     1     2   ar
     5     2     3   ar
     6     3     4   ar
     7     4     7    1
     8     7     8    2
     9     8     9    1
    10     9    10    2
    11    10    11    1
    12    11    12    2
    13    12    13    1
    14    13    14    2
    15    14    15    1
    16     4     5   ar
    17     5     6   ar
    18    17    19   am
    19    19    22    1
    20    22    23   ar
    21    23    24   ar
    22    24    25   ar
    23    25    26   ar
    24    26    27    1
    25    26    28   ar
    26     6     1   ar
    27    28    22   ar
    28    15     7    1
    29    15    11    1
    30    18    20    1
    31    19    21    1
@<TRIPOS>MOLECULE
*****
 28 31 0 0 0
SMALL
GASTEIGER

@<TRIPOS>ATOM
      1 C          63.2527   87.4049   12.5448 C.ar    1  UNL1        0.0516
      2 C          63.9345   87.1366   13.8537 C.ar    1  UNL1        0.0147
      3 C          64.4198   88.2798   14.6947 C.ar    1  UNL1        0.0010
      4 C          64.2233   89.6915   14.2269 C.ar    1  UNL1       -0.0014
      5 C          63.5415   89.9598   12.9181 C.ar    1  UNL1        0.0010
      6 C          63.0562   88.8165   12.0770 C.ar    1  UNL1        0.0147
      7 C          64.7086   90.8348   15.0680 C.2     1  UNL1        0.0158
      8 C          63.9603   91.2239   16.3084 C.2     1  UNL1        0.0487
      9 C          64.4455   92.3671   17.1495 C.2     1  UNL1        0.2355
     10 N          65.6792   93.1213   16.7502 N.2     1  UNL1       -0.0325
     11 C          66.4275   92.7322   15.5098 C.2     1  UNL1        0.3799
     12 N          67.6657   93.2860   14.8694 N.2     1  UNL1       -0.0106
     13 C          67.9456   92.4849   13.6325 C.2     1  UNL1        0.3351
     14 N          66.8805   91.4361   13.5084 N.2     1  UNL1       -0.2103
     15 C          65.9422   91.5889   14.6687 C.3     1  UNL1        0.2404
     16 O          63.3999   84.5997   13.5979 O.2     1  UNL1       -0.2522
     17 C          62.8410   84.8590   12.2303 C.2     1  UNL1        0.3082
     18 N          62.7674   86.2617   11.7038 N.am    1  UNL1       -0.2681
     19 N          62.3557   83.7158   11.3893 N.am    1  UNL1       -0.2680
     20 H          62.4006   86.4319   10.8062 H       1  UNL1        0.1564
     21 H          61.9889   83.8860   10.4917 H       1  UNL1        0.1564
     22 C          62.4293   82.3131   11.9158 C.ar    1  UNL1        0.0524
     23 C          62.2741   82.0545   13.3852 C.ar    1  UNL1        0.0148
     24 C          62.3477   80.6519   13.9118 C.ar    1  UNL1        0.0021
     25 C          62.5765   79.5079   12.9690 C.ar    1  UNL1        0.0115
     26 C          62.7317   79.7665   11.4995 C.ar    1  UNL1        0.0589
     27 CL         62.9604   78.6225   10.5568 Cl      1  UNL1       -0.0822
     28 C          62.6581   81.1692   10.9730 C.ar    1  UNL1        0.0261
@<TRIPOS>BOND
     1    16    17    2
     2    17    18   am
     3    18     1    1
     4     1     2   ar
     5     2     3   ar
     6     3     4   ar
     7     4     7    1
     8     7     8    2
     9     8     9    1
    10     9    10    2
    11    10    11    1
    12    11    12    2
    13    12    13    1
    14    13    14    2
    15    14    15    1
    16     4     5   ar
    17     5     6   ar
    18    17    19   am
    19    19    22    1
    20    22    23   ar
    21    23    24   ar
    22    24    25   ar
    23    25    26   ar
    24    26    27    1
    25    26    28   ar
    26     6     1   ar
    27    28    22   ar
    28    15     7    1
    29    15    11    1
    30    18    20    1
    31    19    21    1
@<TRIPOS>MOLECULE
*****
 28 31 0 0 0
SMALL
GASTEIGER

@<TRIPOS>ATOM
      1 C          63.1478   86.9148   12.5742 C.ar    1  UNL1        0.0516
      2 C          63.7059   86.1810   13.7575 C.ar    1  UNL1        0.0147
      3 C          63.4831   84.7043   13.8977 C.ar    1  UNL1        0.0010
      4 C          62.7021   83.9613   12.8545 C.ar    1  UNL1       -0.0014
      5 C          62.1441   84.6950   11.6712 C.ar    1  UNL1        0.0010
      6 C          62.3669   86.1717   11.5311 C.ar    1  UNL1        0.0147
      7 C          62.4793   82.4845   12.9947 C.2     1  UNL1        0.0158
      8 C          61.9394   81.9260   14.2778 C.2     1  UNL1        0.0487
      9 C          61.7166   80.4494   14.4180 C.2     1  UNL1        0.2355
     10 N          62.0337   79.5311   13.2750 N.2     1  UNL1       -0.0325
     11 C          62.5737   80.0896   11.9919 C.2     1  UNL1        0.3799
     12 N          62.9754   79.4358   10.7031 N.2     1  UNL1       -0.0106
     13 C          63.4466   80.5084    9.7664 C.2     1  UNL1        0.3351
     14 N          63.3360   81.8252   10.4762 N.2     1  UNL1       -0.2103
     15 C          62.7965   81.5664   11.8517 C.3     1  UNL1        0.2404
     16 O          64.7891   88.3840   14.6107 O.2     1  UNL1       -0.2522
     17 C          64.1913   89.1261   13.4524 C.2     1  UNL1        0.3082
     18 N          63.3706   88.3914   12.4341 N.am    1  UNL1       -0.2681
     19 N          64.4141   90.6027   13.3122 N.am    1  UNL1       -0.2680
     20 H          62.9782   88.8784   11.6738 H       1  UNL1        0.1564
     21 H          64.0217   91.0898   12.5519 H       1  UNL1        0.1564
     22 C          65.2347   91.3375   14.3305 C.ar    1  UNL1        0.0524
     23 C          64.6088   91.7814   15.6193 C.ar    1  UNL1        0.0148
     24 C          65.4294   92.5161   16.6376 C.ar    1  UNL1        0.0021
     25 C          66.8759   92.8068   16.3671 C.ar    1  UNL1        0.0115
     26 C          67.5018   92.3628   15.0781 C.ar    1  UNL1        0.0589
     27 CL         68.9482   92.6535   14.8075 Cl      1  UNL1       -0.0822
     28 C          66.6811   91.6281   14.0598 C.ar    1  UNL1        0.0261
@<TRIPOS>BOND
     1    16    17    2
     2    17    18   am
     3    18     1    1
     4     1     2   ar
     5     2     3   ar
     6     3     4   ar
     7     4     7    1
     8     7     8    2
     9     8     9    1
    10     9    10    2
    11    10    11    1
    12    11    12    2
    13    12    13    1
    14    13    14    2
    15    14    15    1
    16     4     5   ar
    17     5     6   ar
    18    17    19   am
    19    19    22    1
    20    22    23   ar
    21    23    24   ar
    22    24    25   ar
    23    25    26   ar
    24    26    27    1
    25    26    28   ar
    26     6     1   ar
    27    28    22   ar
    28    15     7    1
    29    15    11    1
    30    18    20    1
    31    19    21    1
@<TRIPOS>MOLECULE
*****
 28 31 0 0 0
SMALL
GASTEIGER

@<TRIPOS>ATOM
      1 C          62.2255   89.5744   12.8891 C.ar    1  UNL1        0.0516
      2 C          62.9544   88.3876   12.3321 C.ar    1  UNL1        0.0147
      3 C          62.4032   87.6595   11.1423 C.ar    1  UNL1        0.0010
      4 C          61.1229   88.1181   10.5093 C.ar    1  UNL1       -0.0014
      5 C          60.3939   89.3048   11.0662 C.ar    1  UNL1        0.0010
      6 C          60.9452   90.0329   12.2562 C.ar    1  UNL1        0.0147
      7 C          60.5716   87.3899    9.3193 C.2     1  UNL1        0.0158
      8 C          59.1762   87.6727    8.8473 C.2     1  UNL1        0.0487
      9 C          58.6249   86.9446    7.6575 C.2     1  UNL1        0.2355
     10 N          59.4691   85.9336    6.9395 N.2     1  UNL1       -0.0325
     11 C          60.8645   85.6508    7.4116 C.2     1  UNL1        0.3799
     12 N          61.9238   84.7154    6.9088 N.2     1  UNL1       -0.0106
     13 C          63.1298   84.8654    7.7881 C.2     1  UNL1        0.3351
     14 N          62.8158   85.8936    8.8342 N.2     1  UNL1       -0.2103
     15 C          61.4157   86.3790    8.6015 C.3     1  UNL1        0.2404
     16 O          65.0609   90.5539   12.8669 O.2     1  UNL1       -0.2522
     17 C          64.1945   90.7923   14.0680 C.2     1  UNL1        0.3082
     18 N          62.7767   90.3025   14.0790 N.am    1  UNL1       -0.2681
     19 N          64.7457   91.5204   15.2578 N.am    1  UNL1       -0.2680
     20 H          62.2080   90.4589   14.8672 H       1  UNL1        0.1564
     21 H          64.1770   91.6768   16.0461 H       1  UNL1        0.1564
     22 C          66.1636   92.0102   15.2468 C.ar    1  UNL1        0.0524
     23 C          66.6643   92.8825   16.3596 C.ar    1  UNL1        0.0148
     24 C          68.0820   93.3723   16.3486 C.ar    1  UNL1        0.0021
     25 C          68.9990   92.9898   15.2248 C.ar    1  UNL1        0.0115
     26 C          68.4982   92.1174   14.1120 C.ar    1  UNL1        0.0589
     27 CL         69.4151   91.7349   12.9883 Cl      1  UNL1       -0.0822
     28 C          67.0804   91.6276   14.1230 C.ar    1  UNL1        0.0261
@<TRIPOS>BOND
     1    16    17    2
     2    17    18   am
     3    18     1    1
     4     1     2   ar
     5     2     3   ar
     6     3     4   ar
     7     4     7    1
     8     7     8    2
     9     8     9    1
    10     9    10    2
    11    10    11    1
    12    11    12    2
    13    12    13    1
    14    13    14    2
    15    14    15    1
    16     4     5   ar
    17     5     6   ar
    18    17    19   am
    19    19    22    1
    20    22    23   ar
    21    23    24   ar
    22    24    25   ar
    23    25    26   ar
    24    26    27    1
    25    26    28   ar
    26     6     1   ar
    27    28    22   ar
    28    15     7    1
    29    15    11    1
    30    18    20    1
    31    19    21    1
