@<TRIPOS>MOLECULE
*****
 34 39 0 0 0
SMALL
GASTEIGER

@<TRIPOS>ATOM
      1 C          63.8297   86.5442   14.9554 C.ar    1  UNL1        0.0212
      2 C          63.3530   86.4327   16.3732 C.ar    1  UNL1        0.0328
      3 C          63.0952   87.6723   17.1776 C.ar    1  UNL1        0.1610
      4 F          62.6185   87.5608   18.5954 F       1  UNL1       -0.2025
      5 C          63.3142   89.0235   16.5640 C.ar    1  UNL1        0.1494
      6 N          63.1455   90.4116   17.1068 N.ar    1  UNL1       -0.1262
      7 N          63.5180   91.3809   16.0245 N.ar    1  UNL1       -0.0595
      8 N          63.9168   90.5920   14.8127 N.ar    1  UNL1       -0.2103
      9 C          63.7908   89.1350   15.1461 C.ar    1  UNL1        0.1060
     10 C          64.0486   87.8953   14.3418 C.ar    1  UNL1        0.0224
     11 C          64.3632   91.1603   13.4982 C.ar    1  UNL1        0.0858
     12 C          63.5445   90.9266   12.2633 C.ar    1  UNL1        0.0206
     13 C          63.9909   91.4949   10.9488 C.ar    1  UNL1        0.0195
     14 C          65.2559   92.2969   10.8693 C.ar    1  UNL1        0.0904
     15 N          65.9428   92.9771    9.7222 N.am    1  UNL1       -0.1594
     16 C          67.1859   93.6312   10.2483 C.2     1  UNL1        0.3478
     17 O          68.1740   94.4224    9.4435 O.2     1  UNL1       -0.2484
     18 N          67.2674   93.3552   11.7205 N.am    1  UNL1       -0.1593
     19 C          66.0747   92.5306   12.1043 C.ar    1  UNL1        0.0918
     20 C          65.6283   91.9623   13.4187 C.ar    1  UNL1        0.0372
     21 N          63.5512   85.0156   12.7803 N.ar    1  UNL1       -0.2464
     22 N          64.0591   83.6687   12.3584 N.ar    1  UNL1       -0.1674
     23 C          64.9092   83.1253   13.4684 C.ar    1  UNL1        0.1217
     24 C          64.9267   84.1363   14.5763 C.ar    1  UNL1        0.0412
     25 C          64.0874   85.3046   14.1510 C.ar    1  UNL1        0.0799
     26 C          62.6631   85.9154   11.9732 C.3     1  UNL1        0.1538
     27 C          61.9229   85.0336    7.6230 C.ar    1  UNL1        0.0684
     28 C          60.9761   85.9163    8.3810 C.ar    1  UNL1        0.0100
     29 C          61.2228   86.2102    9.8311 C.ar    1  UNL1       -0.0016
     30 C          62.4163   85.6215   10.5231 C.ar    1  UNL1        0.0021
     31 C          63.3631   84.7388    9.7651 C.ar    1  UNL1       -0.0016
     32 C          63.1164   84.4449    8.3150 C.ar    1  UNL1        0.0100
     33 N          61.4292   84.4459    4.7228 N.1     1  UNL1       -0.1908
     34 C          61.6761   84.7397    6.1729 C.1     1  UNL1        0.1004
@<TRIPOS>BOND
     1    33    34    3
     2    34    27    1
     3    27    28   ar
     4    28    29   ar
     5    29    30   ar
     6    30    26    1
     7    26    21    1
     8    21    22   ar
     9    22    23   ar
    10    23    24   ar
    11    24    25   ar
    12    25     1    1
    13     1     2   ar
    14     2     3   ar
    15     3     4    1
    16     3     5   ar
    17     5     6   ar
    18     6     7   ar
    19     7     8   ar
    20     8    11    1
    21    11    12   ar
    22    12    13   ar
    23    13    14   ar
    24    14    15    2
    25    15    16    1
    26    16    17    2
    27    16    18    1
    28    18    19    2
    29    19    20   ar
    30     8     9   ar
    31     9    10   ar
    32    30    31   ar
    33    31    32   ar
    34    32    27   ar
    35    25    21   ar
    36    10     1   ar
    37     9     5   ar
    38    20    11   ar
    39    19    14   ar
@<TRIPOS>MOLECULE
*****
 34 39 0 0 0
SMALL
GASTEIGER

@<TRIPOS>ATOM
      1 C          62.2149   85.3771   10.4556 C.ar    1  UNL1        0.0212
      2 C          62.7290   84.0693    9.9311 C.ar    1  UNL1        0.0328
      3 C          63.6290   83.2220   10.7810 C.ar    1  UNL1        0.1610
      4 F          64.1431   81.9140   10.2564 F       1  UNL1       -0.2025
      5 C          64.0150   83.6827   12.1553 C.ar    1  UNL1        0.1494
      6 N          64.8799   83.0662   13.2144 N.ar    1  UNL1       -0.1262
      7 N          64.9004   83.9932   14.3936 N.ar    1  UNL1       -0.0595
      8 N          64.0481   85.1825   14.0631 N.ar    1  UNL1       -0.2103
      9 C          63.5009   84.9906   12.6798 C.ar    1  UNL1        0.1060
     10 C          62.6008   85.8378   11.8300 C.ar    1  UNL1        0.0224
     11 C          63.7886   86.3574   14.9588 C.ar    1  UNL1        0.0858
     12 C          63.1186   86.1555   16.2856 C.ar    1  UNL1        0.0206
     13 C          62.8591   87.3304   17.1813 C.ar    1  UNL1        0.0195
     14 C          63.2697   88.7071   16.7503 C.ar    1  UNL1        0.0904
     15 N          63.1456   90.0459   17.4155 N.am    1  UNL1       -0.1594
     16 C          63.7389   91.0752   16.4998 C.2     1  UNL1        0.3478
     17 O          63.8262   92.5484   16.7681 O.2     1  UNL1       -0.2484
     18 N          64.2298   90.3726   15.2687 N.am    1  UNL1       -0.1593
     19 C          63.9397   88.9090   15.4235 C.ar    1  UNL1        0.0918
     20 C          64.1992   87.7342   14.5278 C.ar    1  UNL1        0.0372
     21 N          60.8396   87.6089    9.9333 N.ar    1  UNL1       -0.2464
     22 N          59.9631   88.0760    8.8092 N.ar    1  UNL1       -0.1674
     23 C          59.8967   86.9802    7.7870 C.ar    1  UNL1        0.1217
     24 C          60.7322   85.8358    8.2794 C.ar    1  UNL1        0.0412
     25 C          61.3149   86.2244    9.6058 C.ar    1  UNL1        0.0799
     26 C          61.1808   88.3892   11.1680 C.3     1  UNL1        0.1538
     27 C          64.1454   91.7673   10.9471 C.ar    1  UNL1        0.0684
     28 C          64.0213   90.9594   12.2049 C.ar    1  UNL1        0.0100
     29 C          63.0331   89.8334   12.2786 C.ar    1  UNL1       -0.0016
     30 C          62.1690   89.5153   11.0944 C.ar    1  UNL1        0.0021
     31 C          62.2932   90.3231    9.8367 C.ar    1  UNL1       -0.0016
     32 C          63.2814   91.4492    9.7630 C.ar    1  UNL1        0.0100
     33 N          66.1219   94.0194   10.8001 N.1     1  UNL1       -0.1908
     34 C          65.1337   92.8934   10.8735 C.1     1  UNL1        0.1004
@<TRIPOS>BOND
     1    33    34    3
     2    34    27    1
     3    27    28   ar
     4    28    29   ar
     5    29    30   ar
     6    30    26    1
     7    26    21    1
     8    21    22   ar
     9    22    23   ar
    10    23    24   ar
    11    24    25   ar
    12    25     1    1
    13     1     2   ar
    14     2     3   ar
    15     3     4    1
    16     3     5   ar
    17     5     6   ar
    18     6     7   ar
    19     7     8   ar
    20     8    11    1
    21    11    12   ar
    22    12    13   ar
    23    13    14   ar
    24    14    15    2
    25    15    16    1
    26    16    17    2
    27    16    18    1
    28    18    19    2
    29    19    20   ar
    30     8     9   ar
    31     9    10   ar
    32    30    31   ar
    33    31    32   ar
    34    32    27   ar
    35    25    21   ar
    36    10     1   ar
    37     9     5   ar
    38    20    11   ar
    39    19    14   ar
@<TRIPOS>MOLECULE
*****
 34 39 0 0 0
SMALL
GASTEIGER

@<TRIPOS>ATOM
      1 C          62.9683   89.8892   13.2874 C.ar    1  UNL1        0.0212
      2 C          62.8251   89.7308   14.7720 C.ar    1  UNL1        0.0328
      3 C          63.7380   90.4791   15.6977 C.ar    1  UNL1        0.1610
      4 F          63.5948   90.3207   17.1824 F       1  UNL1       -0.2025
      5 C          64.7939   91.3859   15.1385 C.ar    1  UNL1        0.1494
      6 N          65.8308   92.2458   15.7986 N.ar    1  UNL1       -0.1262
      7 N          66.6147   92.9356   14.7217 N.ar    1  UNL1       -0.0595
      8 N          66.0624   92.5021   13.3962 N.ar    1  UNL1       -0.2103
      9 C          64.9371   91.5443   13.6538 C.ar    1  UNL1        0.1060
     10 C          64.0242   90.7960   12.7282 C.ar    1  UNL1        0.0224
     11 C          66.5498   92.9481   12.0495 C.ar    1  UNL1        0.0858
     12 C          67.4924   92.0814   11.2683 C.ar    1  UNL1        0.0206
     13 C          67.9799   92.5274    9.9216 C.ar    1  UNL1        0.0195
     14 C          67.5247   93.8400    9.3562 C.ar    1  UNL1        0.0904
     15 N          67.8337   94.5379    8.0648 N.am    1  UNL1       -0.1594
     16 C          67.0820   95.8358    8.0480 C.2     1  UNL1        0.3478
     17 O          67.1007   96.8512    6.9440 O.2     1  UNL1       -0.2484
     18 N          66.3084   95.9402    9.3289 N.am    1  UNL1       -0.1593
     19 C          66.5820   94.7067   10.1375 C.ar    1  UNL1        0.0918
     20 C          66.0946   94.2608   11.4841 C.ar    1  UNL1        0.0372
     21 N          62.2328   87.7235   11.9039 N.ar    1  UNL1       -0.2464
     22 N          61.0919   87.3853   10.9906 N.ar    1  UNL1       -0.1674
     23 C          60.2095   88.5936   10.8841 C.ar    1  UNL1        0.1217
     24 C          60.8049   89.6786   11.7314 C.ar    1  UNL1        0.0412
     25 C          62.0554   89.1409   12.3617 C.ar    1  UNL1        0.0799
     26 C          63.3541   86.8056   12.2912 C.3     1  UNL1        0.1538
     27 C          62.5425   82.4365   12.9999 C.ar    1  UNL1        0.0684
     28 C          62.6949   82.9537   11.6000 C.ar    1  UNL1        0.0100
     29 C          62.9655   84.4100   11.3638 C.ar    1  UNL1       -0.0016
     30 C          63.0835   85.3492   12.5275 C.ar    1  UNL1        0.0021
     31 C          62.9311   84.8321   13.9272 C.ar    1  UNL1       -0.0016
     32 C          62.6606   83.3757   14.1634 C.ar    1  UNL1        0.0100
     33 N          62.0014   79.5238   13.4722 N.1     1  UNL1       -0.1908
     34 C          62.2720   80.9802   13.2360 C.1     1  UNL1        0.1004
@<TRIPOS>BOND
     1    33    34    3
     2    34    27    1
     3    27    28   ar
     4    28    29   ar
     5    29    30   ar
     6    30    26    1
     7    26    21    1
     8    21    22   ar
     9    22    23   ar
    10    23    24   ar
    11    24    25   ar
    12    25     1    1
    13     1     2   ar
    14     2     3   ar
    15     3     4    1
    16     3     5   ar
    17     5     6   ar
    18     6     7   ar
    19     7     8   ar
    20     8    11    1
    21    11    12   ar
    22    12    13   ar
    23    13    14   ar
    24    14    15    2
    25    15    16    1
    26    16    17    2
    27    16    18    1
    28    18    19    2
    29    19    20   ar
    30     8     9   ar
    31     9    10   ar
    32    30    31   ar
    33    31    32   ar
    34    32    27   ar
    35    25    21   ar
    36    10     1   ar
    37     9     5   ar
    38    20    11   ar
    39    19    14   ar
@<TRIPOS>MOLECULE
*****
 34 39 0 0 0
SMALL
GASTEIGER

@<TRIPOS>ATOM
      1 C          63.4618   89.0337   13.5704 C.ar    1  UNL1        0.0212
      2 C          63.4798   89.5900   14.9632 C.ar    1  UNL1        0.0328
      3 C          63.5017   88.6618   16.1414 C.ar    1  UNL1        0.1610
      4 F          63.5197   89.2182   17.5343 F       1  UNL1       -0.2025
      5 C          63.5057   87.1773   15.9265 C.ar    1  UNL1        0.1494
      6 N          63.5254   86.0244   16.8859 N.ar    1  UNL1       -0.1262
      7 N          63.5197   84.7555   16.0859 N.ar    1  UNL1       -0.0595
      8 N          63.4964   85.1242   14.6321 N.ar    1  UNL1       -0.2103
      9 C          63.4877   86.6210   14.5336 C.ar    1  UNL1        0.1060
     10 C          63.4658   87.5492   13.3555 C.ar    1  UNL1        0.0224
     11 C          63.4839   84.1647   13.4793 C.ar    1  UNL1        0.0858
     12 C          63.8810   84.6319   12.1103 C.ar    1  UNL1        0.0206
     13 C          63.8686   83.6723   10.9574 C.ar    1  UNL1        0.0195
     14 C          63.4591   82.2456   11.1735 C.ar    1  UNL1        0.0904
     15 N          63.3500   81.0796   10.2361 N.am    1  UNL1       -0.1594
     16 C          62.8856   79.8919   11.0257 C.2     1  UNL1        0.3478
     17 O          62.6419   78.5142   10.4848 O.2     1  UNL1       -0.2484
     18 N          62.7075   80.3238   12.4512 N.am    1  UNL1       -0.1593
     19 C          63.0620   81.7785   12.5425 C.ar    1  UNL1        0.0918
     20 C          63.0744   82.7379   13.6954 C.ar    1  UNL1        0.0372
     21 N          62.4314   89.9537   11.2819 N.ar    1  UNL1       -0.2464
     22 N          62.7909   91.0481   10.3210 N.ar    1  UNL1       -0.1674
     23 C          64.0216   91.7326   10.8375 C.ar    1  UNL1        0.1217
     24 C          64.4228   91.0613   12.1175 C.ar    1  UNL1        0.0412
     25 C          63.4399   89.9619   12.3922 C.ar    1  UNL1        0.0799
     26 C          61.2676   89.0159   11.1548 C.3     1  UNL1        0.1538
     27 C          61.1891   85.9625    7.8503 C.ar    1  UNL1        0.0684
     28 C          60.0287   86.8942    8.0382 C.ar    1  UNL1        0.0100
     29 C          60.0548   87.9121    9.1397 C.ar    1  UNL1       -0.0016
     30 C          61.2414   87.9981   10.0533 C.ar    1  UNL1        0.0021
     31 C          62.4018   87.0663    9.8654 C.ar    1  UNL1       -0.0016
     32 C          62.3757   86.0485    8.7638 C.ar    1  UNL1        0.0100
     33 N          61.1366   83.9268    5.6473 N.1     1  UNL1       -0.1908
     34 C          61.1629   84.9447    6.7487 C.1     1  UNL1        0.1004
@<TRIPOS>BOND
     1    33    34    3
     2    34    27    1
     3    27    28   ar
     4    28    29   ar
     5    29    30   ar
     6    30    26    1
     7    26    21    1
     8    21    22   ar
     9    22    23   ar
    10    23    24   ar
    11    24    25   ar
    12    25     1    1
    13     1     2   ar
    14     2     3   ar
    15     3     4    1
    16     3     5   ar
    17     5     6   ar
    18     6     7   ar
    19     7     8   ar
    20     8    11    1
    21    11    12   ar
    22    12    13   ar
    23    13    14   ar
    24    14    15    2
    25    15    16    1
    26    16    17    2
    27    16    18    1
    28    18    19    2
    29    19    20   ar
    30     8     9   ar
    31     9    10   ar
    32    30    31   ar
    33    31    32   ar
    34    32    27   ar
    35    25    21   ar
    36    10     1   ar
    37     9     5   ar
    38    20    11   ar
    39    19    14   ar
@<TRIPOS>MOLECULE
*****
 34 39 0 0 0
SMALL
GASTEIGER

@<TRIPOS>ATOM
      1 C          61.7204   86.6325    9.1934 C.ar    1  UNL1        0.0212
      2 C          62.2120   86.0091    7.9208 C.ar    1  UNL1        0.0328
      3 C          63.0440   84.7619    7.9692 C.ar    1  UNL1        0.1610
      4 F          63.5356   84.1385    6.6965 F       1  UNL1       -0.2025
      5 C          63.3844   84.1383    9.2902 C.ar    1  UNL1        0.1494
      6 N          64.1801   82.9183    9.6488 N.ar    1  UNL1       -0.1262
      7 N          64.1803   82.7879   11.1431 N.ar    1  UNL1       -0.0595
      8 N          63.3847   83.9271   11.7080 N.ar    1  UNL1       -0.2103
      9 C          62.8928   84.7617   10.5628 C.ar    1  UNL1        0.1060
     10 C          62.0608   86.0089   10.5144 C.ar    1  UNL1        0.0224
     11 C          63.1263   84.1863   13.1627 C.ar    1  UNL1        0.0858
     12 C          62.5594   83.1006   14.0287 C.ar    1  UNL1        0.0206
     13 C          62.3010   83.3597   15.4835 C.ar    1  UNL1        0.0195
     14 C          62.6095   84.7044   16.0721 C.ar    1  UNL1        0.0904
     15 N          62.4619   85.2496   17.4617 N.am    1  UNL1       -0.1594
     16 C          62.9375   86.6722   17.4545 C.2     1  UNL1        0.3478
     17 O          62.9664   87.5981   18.6342 O.2     1  UNL1       -0.2484
     18 N          63.3791   87.0062   16.0603 N.am    1  UNL1       -0.1593
     19 C          63.1764   85.7901   15.2060 C.ar    1  UNL1        0.0918
     20 C          63.4348   85.5310   13.7514 C.ar    1  UNL1        0.0372
     21 N          60.7810   88.9106   10.2294 N.ar    1  UNL1       -0.2464
     22 N          59.8438   89.9830    9.7583 N.ar    1  UNL1       -0.1674
     23 C          59.3719   89.6148    8.3829 C.ar    1  UNL1        0.1217
     24 C          60.0175   88.3149    8.0039 C.ar    1  UNL1        0.0412
     25 C          60.8883   87.8797    9.1451 C.ar    1  UNL1        0.0799
     26 C          61.4869   88.8754   11.5524 C.3     1  UNL1        0.1538
     27 C          64.8406   91.7564   12.3906 C.ar    1  UNL1        0.0684
     28 C          64.4099   90.7796   13.4445 C.ar    1  UNL1        0.0100
     29 C          63.2920   89.8193   13.1651 C.ar    1  UNL1       -0.0016
     30 C          62.6048   89.8358   11.8318 C.ar    1  UNL1        0.0021
     31 C          63.0356   90.8125   10.7780 C.ar    1  UNL1       -0.0016
     32 C          64.1535   91.7728   11.0574 C.ar    1  UNL1        0.0100
     33 N          67.0764   93.6770   12.9497 N.1     1  UNL1       -0.1908
     34 C          65.9585   92.7167   12.6701 C.1     1  UNL1        0.1004
@<TRIPOS>BOND
     1    33    34    3
     2    34    27    1
     3    27    28   ar
     4    28    29   ar
     5    29    30   ar
     6    30    26    1
     7    26    21    1
     8    21    22   ar
     9    22    23   ar
    10    23    24   ar
    11    24    25   ar
    12    25     1    1
    13     1     2   ar
    14     2     3   ar
    15     3     4    1
    16     3     5   ar
    17     5     6   ar
    18     6     7   ar
    19     7     8   ar
    20     8    11    1
    21    11    12   ar
    22    12    13   ar
    23    13    14   ar
    24    14    15    2
    25    15    16    1
    26    16    17    2
    27    16    18    1
    28    18    19    2
    29    19    20   ar
    30     8     9   ar
    31     9    10   ar
    32    30    31   ar
    33    31    32   ar
    34    32    27   ar
    35    25    21   ar
    36    10     1   ar
    37     9     5   ar
    38    20    11   ar
    39    19    14   ar
@<TRIPOS>MOLECULE
*****
 34 39 0 0 0
SMALL
GASTEIGER

@<TRIPOS>ATOM
      1 C          62.9544   84.2523   12.4311 C.ar    1  UNL1        0.0212
      2 C          62.5770   82.9266   13.0227 C.ar    1  UNL1        0.0328
      3 C          62.3950   82.7915   14.5056 C.ar    1  UNL1        0.1610
      4 F          62.0176   81.4657   15.0971 F       1  UNL1       -0.2025
      5 C          62.5905   83.9822   15.3967 C.ar    1  UNL1        0.1494
      6 N          62.4812   84.1521   16.8830 N.ar    1  UNL1       -0.1262
      7 N          62.7912   85.5828   17.2100 N.ar    1  UNL1       -0.0595
      8 N          63.0919   86.2972   15.9257 N.ar    1  UNL1       -0.2103
      9 C          62.9679   85.3079   14.8050 C.ar    1  UNL1        0.1060
     10 C          63.1499   85.4429   13.3222 C.ar    1  UNL1        0.0224
     11 C          63.4533   87.7463   15.7866 C.ar    1  UNL1        0.0858
     12 C          63.1061   88.7140   16.8789 C.ar    1  UNL1        0.0206
     13 C          63.4675   90.1632   16.7398 C.ar    1  UNL1        0.0195
     14 C          64.1759   90.6447   15.5085 C.ar    1  UNL1        0.0904
     15 N          64.6561   92.0039   15.0935 N.am    1  UNL1       -0.1594
     16 C          65.3000   91.8762   13.7448 C.2     1  UNL1        0.3478
     17 O          65.9176   92.9908   12.9536 O.2     1  UNL1       -0.2484
     18 N          65.2178   90.4380   13.3262 N.am    1  UNL1       -0.1593
     19 C          64.5231   89.6769   14.4162 C.ar    1  UNL1        0.0918
     20 C          64.1618   88.2278   14.5552 C.ar    1  UNL1        0.0372
     21 N          62.3773   85.3163   10.0478 N.ar    1  UNL1       -0.2464
     22 N          62.8813   85.1203    8.6487 N.ar    1  UNL1       -0.1674
     23 C          63.9518   84.0702    8.6844 C.ar    1  UNL1        0.1217
     24 C          64.1095   83.6173   10.1057 C.ar    1  UNL1        0.0412
     25 C          63.1364   84.3874   10.9483 C.ar    1  UNL1        0.0799
     26 C          61.3030   86.2733   10.4720 C.3     1  UNL1        0.1538
     27 C          59.4126   89.0180    7.4484 C.ar    1  UNL1        0.0684
     28 C          60.3262   89.5755    8.4995 C.ar    1  UNL1        0.0100
     29 C          60.9564   88.6606    9.5074 C.ar    1  UNL1       -0.0016
     30 C          60.6728   87.1882    9.4641 C.ar    1  UNL1        0.0021
     31 C          59.7592   86.6308    8.4132 C.ar    1  UNL1       -0.0016
     32 C          59.1291   87.5458    7.4053 C.ar    1  UNL1        0.0100
     33 N          58.1524   90.8481    5.4328 N.1     1  UNL1       -0.1908
     34 C          58.7825   89.9331    6.4406 C.1     1  UNL1        0.1004
@<TRIPOS>BOND
     1    33    34    3
     2    34    27    1
     3    27    28   ar
     4    28    29   ar
     5    29    30   ar
     6    30    26    1
     7    26    21    1
     8    21    22   ar
     9    22    23   ar
    10    23    24   ar
    11    24    25   ar
    12    25     1    1
    13     1     2   ar
    14     2     3   ar
    15     3     4    1
    16     3     5   ar
    17     5     6   ar
    18     6     7   ar
    19     7     8   ar
    20     8    11    1
    21    11    12   ar
    22    12    13   ar
    23    13    14   ar
    24    14    15    2
    25    15    16    1
    26    16    17    2
    27    16    18    1
    28    18    19    2
    29    19    20   ar
    30     8     9   ar
    31     9    10   ar
    32    30    31   ar
    33    31    32   ar
    34    32    27   ar
    35    25    21   ar
    36    10     1   ar
    37     9     5   ar
    38    20    11   ar
    39    19    14   ar
@<TRIPOS>MOLECULE
*****
 34 39 0 0 0
SMALL
GASTEIGER

@<TRIPOS>ATOM
      1 C          63.1457   86.4475   12.6657 C.ar    1  UNL1        0.0212
      2 C          62.3023   86.2644   11.4390 C.ar    1  UNL1        0.0328
      3 C          61.9176   87.4532   10.6089 C.ar    1  UNL1        0.1610
      4 F          61.0741   87.2700    9.3821 F       1  UNL1       -0.2025
      5 C          62.3763   88.8250   11.0058 C.ar    1  UNL1        0.1494
      6 N          62.1563   90.1745   10.3889 N.ar    1  UNL1       -0.1262
      7 N          62.8638   91.1916   11.2345 N.ar    1  UNL1       -0.0595
      8 N          63.5210   90.4707   12.3740 N.ar    1  UNL1       -0.2103
      9 C          63.2197   89.0081   12.2327 C.ar    1  UNL1        0.1060
     10 C          63.6044   87.8193   13.0626 C.ar    1  UNL1        0.0224
     11 C          64.3364   91.1018   13.4635 C.ar    1  UNL1        0.0858
     12 C          63.8604   91.0455   14.8848 C.ar    1  UNL1        0.0206
     13 C          64.6757   91.6765   15.9744 C.ar    1  UNL1        0.0195
     14 C          65.9670   92.3638   15.6426 C.ar    1  UNL1        0.0904
     15 N          66.9767   93.0703   16.4979 N.am    1  UNL1       -0.1594
     16 C          68.0767   93.5631   15.6051 C.2     1  UNL1        0.3478
     17 O          69.2930   94.3242   16.0425 O.2     1  UNL1       -0.2484
     18 N          67.7469   93.1612   14.1980 N.am    1  UNL1       -0.1593
     19 C          66.4430   92.4200   14.2212 C.ar    1  UNL1        0.0918
     20 C          65.6277   91.7890   13.1317 C.ar    1  UNL1        0.0372
     21 N          63.3515   83.8199   13.1113 N.ar    1  UNL1       -0.2464
     22 N          63.8722   82.9720   14.2339 N.ar    1  UNL1       -0.1674
     23 C          64.3728   83.8869   15.3121 C.ar    1  UNL1        0.1217
     24 C          64.1616   85.3001   14.8558 C.ar    1  UNL1        0.0412
     25 C          63.5304   85.2587   13.4957 C.ar    1  UNL1        0.0799
     26 C          62.7565   83.3171   11.8295 C.3     1  UNL1        0.1538
     27 C          62.8509   78.9201   10.8773 C.ar    1  UNL1        0.0684
     28 C          63.1345   79.9266    9.8018 C.ar    1  UNL1        0.0100
     29 C          63.1030   81.3923   10.1192 C.ar    1  UNL1       -0.0016
     30 C          62.7879   81.8514   11.5121 C.ar    1  UNL1        0.0021
     31 C          62.5044   80.8449   12.5875 C.ar    1  UNL1       -0.0016
     32 C          62.5358   79.3792   12.2701 C.ar    1  UNL1        0.0100
     33 N          62.9139   75.9887   10.2423 N.1     1  UNL1       -0.1908
     34 C          62.8823   77.4544   10.5598 C.1     1  UNL1        0.1004
@<TRIPOS>BOND
     1    33    34    3
     2    34    27    1
     3    27    28   ar
     4    28    29   ar
     5    29    30   ar
     6    30    26    1
     7    26    21    1
     8    21    22   ar
     9    22    23   ar
    10    23    24   ar
    11    24    25   ar
    12    25     1    1
    13     1     2   ar
    14     2     3   ar
    15     3     4    1
    16     3     5   ar
    17     5     6   ar
    18     6     7   ar
    19     7     8   ar
    20     8    11    1
    21    11    12   ar
    22    12    13   ar
    23    13    14   ar
    24    14    15    2
    25    15    16    1
    26    16    17    2
    27    16    18    1
    28    18    19    2
    29    19    20   ar
    30     8     9   ar
    31     9    10   ar
    32    30    31   ar
    33    31    32   ar
    34    32    27   ar
    35    25    21   ar
    36    10     1   ar
    37     9     5   ar
    38    20    11   ar
    39    19    14   ar
@<TRIPOS>MOLECULE
*****
 34 39 0 0 0
SMALL
GASTEIGER

@<TRIPOS>ATOM
      1 C          62.8526   84.8526   11.8104 C.ar    1  UNL1        0.0212
      2 C          62.7787   83.3991   12.1730 C.ar    1  UNL1        0.0328
      3 C          63.0116   82.9669   13.5905 C.ar    1  UNL1        0.1610
      4 F          62.9376   81.5132   13.9531 F       1  UNL1       -0.2025
      5 C          63.3184   83.9884   14.6451 C.ar    1  UNL1        0.1494
      6 N          63.5919   83.8628   16.1146 N.ar    1  UNL1       -0.1262
      7 N          63.8349   85.2388   16.6601 N.ar    1  UNL1       -0.0595
      8 N          63.7116   86.2148   15.5278 N.ar    1  UNL1       -0.2103
      9 C          63.3924   85.4420   14.2824 C.ar    1  UNL1        0.1060
     10 C          63.1595   85.8741   12.8650 C.ar    1  UNL1        0.0224
     11 C          63.8782   87.7024   15.6240 C.ar    1  UNL1        0.0858
     12 C          62.9574   88.5055   16.4940 C.ar    1  UNL1        0.0206
     13 C          63.1240   89.9932   16.5903 C.ar    1  UNL1        0.0195
     14 C          64.2114   90.6776   15.8164 C.ar    1  UNL1        0.0904
     15 N          64.6155   92.1185   15.7131 N.am    1  UNL1       -0.1594
     16 C          65.7860   92.2059   14.7792 C.2     1  UNL1        0.3478
     17 O          66.5100   93.4600   14.3879 O.2     1  UNL1       -0.2484
     18 N          66.1054   90.8190   14.3052 N.am    1  UNL1       -0.1593
     19 C          65.1322   89.8744   14.9462 C.ar    1  UNL1        0.0918
     20 C          64.9657   88.3869   14.8500 C.ar    1  UNL1        0.0372
     21 N          62.0389   86.5968    9.9553 N.ar    1  UNL1       -0.2464
     22 N          61.9870   86.6036    8.4562 N.ar    1  UNL1       -0.1674
     23 C          62.5358   85.2960    7.9673 C.ar    1  UNL1        0.1217
     24 C          62.9268   84.4810    9.1643 C.ar    1  UNL1        0.0412
     25 C          62.6197   85.2849   10.3929 C.ar    1  UNL1        0.0799
     26 C          61.5890   87.7068   10.8582 C.3     1  UNL1        0.1538
     27 C          63.9152   91.5553   11.0238 C.ar    1  UNL1        0.0684
     28 C          63.8750   90.6512   12.2201 C.ar    1  UNL1        0.0100
     29 C          63.0996   89.3683   12.1649 C.ar    1  UNL1       -0.0016
     30 C          62.3644   88.9897   10.9134 C.ar    1  UNL1        0.0021
     31 C          62.4046   89.8938    9.7172 C.ar    1  UNL1       -0.0016
     32 C          63.1800   91.1767    9.7724 C.ar    1  UNL1        0.0100
     33 N          65.4661   94.1210   11.1345 N.1     1  UNL1       -0.1908
     34 C          64.6906   92.8382   11.0791 C.1     1  UNL1        0.1004
@<TRIPOS>BOND
     1    33    34    3
     2    34    27    1
     3    27    28   ar
     4    28    29   ar
     5    29    30   ar
     6    30    26    1
     7    26    21    1
     8    21    22   ar
     9    22    23   ar
    10    23    24   ar
    11    24    25   ar
    12    25     1    1
    13     1     2   ar
    14     2     3   ar
    15     3     4    1
    16     3     5   ar
    17     5     6   ar
    18     6     7   ar
    19     7     8   ar
    20     8    11    1
    21    11    12   ar
    22    12    13   ar
    23    13    14   ar
    24    14    15    2
    25    15    16    1
    26    16    17    2
    27    16    18    1
    28    18    19    2
    29    19    20   ar
    30     8     9   ar
    31     9    10   ar
    32    30    31   ar
    33    31    32   ar
    34    32    27   ar
    35    25    21   ar
    36    10     1   ar
    37     9     5   ar
    38    20    11   ar
    39    19    14   ar
@<TRIPOS>MOLECULE
*****
 34 39 0 0 0
SMALL
GASTEIGER

@<TRIPOS>ATOM
      1 C          63.0558   86.5723   12.7394 C.ar    1  UNL1        0.0212
      2 C          61.9783   85.9720   11.8860 C.ar    1  UNL1        0.0328
      3 C          61.3192   86.7965   10.8201 C.ar    1  UNL1        0.1610
      4 F          60.2416   86.1961    9.9666 F       1  UNL1       -0.2025
      5 C          61.7377   88.2212   10.6079 C.ar    1  UNL1        0.1494
      6 N          61.2725   89.2706    9.6423 N.ar    1  UNL1       -0.1262
      7 N          62.0627   90.5195    9.8992 N.ar    1  UNL1       -0.0595
      8 N          63.0161   90.2419   11.0234 N.ar    1  UNL1       -0.2103
      9 C          62.8152   88.8214   11.4614 C.ar    1  UNL1        0.1060
     10 C          63.4743   87.9970   12.5272 C.ar    1  UNL1        0.0224
     11 C          63.9980   91.2141   11.6071 C.ar    1  UNL1        0.0858
     12 C          64.5632   92.3118   10.7553 C.ar    1  UNL1        0.0206
     13 C          65.5451   93.2841   11.3390 C.ar    1  UNL1        0.0195
     14 C          65.9617   93.1586   12.7745 C.ar    1  UNL1        0.0904
     15 N          66.9044   93.9628   13.6200 N.am    1  UNL1       -0.1594
     16 C          66.9216   93.3621   14.9944 C.2     1  UNL1        0.3478
     17 O          67.7291   93.8509   16.1601 O.2     1  UNL1       -0.2484
     18 N          65.9897   92.1866   14.9982 N.am    1  UNL1       -0.1593
     19 C          65.3964   92.0609   13.6263 C.ar    1  UNL1        0.0918
     20 C          64.4146   91.0887   13.0427 C.ar    1  UNL1        0.0372
     21 N          63.2702   84.3943   14.2742 N.ar    1  UNL1       -0.2464
     22 N          64.2150   83.9422   15.3481 N.ar    1  UNL1       -0.1674
     23 C          65.2436   85.0165   15.5428 C.ar    1  UNL1        0.1217
     24 C          64.9346   86.1324   14.5893 C.ar    1  UNL1        0.0412
     25 C          63.7149   85.7479   13.8053 C.ar    1  UNL1        0.0799
     26 C          62.0882   83.6273   13.7597 C.3     1  UNL1        0.1538
     27 C          62.7044   79.7372   11.5832 C.ar    1  UNL1        0.0684
     28 C          62.1911   79.7349   12.9927 C.ar    1  UNL1        0.0100
     29 C          61.9857   81.0316   13.7182 C.ar    1  UNL1       -0.0016
     30 C          62.2936   82.3306   13.0342 C.ar    1  UNL1        0.0021
     31 C          62.8070   82.3329   11.6248 C.ar    1  UNL1       -0.0016
     32 C          63.0124   81.0361   10.8993 C.ar    1  UNL1        0.0100
     33 N          63.1153   77.1437   10.1324 N.1     1  UNL1       -0.1908
     34 C          62.9098   78.4404   10.8578 C.1     1  UNL1        0.1004
@<TRIPOS>BOND
     1    33    34    3
     2    34    27    1
     3    27    28   ar
     4    28    29   ar
     5    29    30   ar
     6    30    26    1
     7    26    21    1
     8    21    22   ar
     9    22    23   ar
    10    23    24   ar
    11    24    25   ar
    12    25     1    1
    13     1     2   ar
    14     2     3   ar
    15     3     4    1
    16     3     5   ar
    17     5     6   ar
    18     6     7   ar
    19     7     8   ar
    20     8    11    1
    21    11    12   ar
    22    12    13   ar
    23    13    14   ar
    24    14    15    2
    25    15    16    1
    26    16    17    2
    27    16    18    1
    28    18    19    2
    29    19    20   ar
    30     8     9   ar
    31     9    10   ar
    32    30    31   ar
    33    31    32   ar
    34    32    27   ar
    35    25    21   ar
    36    10     1   ar
    37     9     5   ar
    38    20    11   ar
    39    19    14   ar
