@<TRIPOS>MOLECULE
*****
 27 29 0 0 0
SMALL
GASTEIGER

@<TRIPOS>ATOM
      1 C          64.1989   90.5355   15.1531 C.ar    1  UNL1        0.1386
      2 C          63.4362   90.3119   16.4251 C.ar    1  UNL1        0.0370
      3 C          63.0878   88.9178   16.8555 C.ar    1  UNL1        0.0060
      4 C          63.5022   87.7474   16.0137 C.ar    1  UNL1        0.0363
      5 C          64.2649   87.9711   14.7417 C.ar    1  UNL1        0.0060
      6 C          64.6133   89.3651   14.3113 C.ar    1  UNL1        0.0370
      7 C          63.1538   86.3533   16.4442 C.2     1  UNL1        0.1892
      8 O          61.9319   86.1096   17.2794 O.2     1  UNL1       -0.2899
      9 C          64.0272   85.2031   16.0393 C.3     1  UNL1        0.1423
     10 N          63.5965   84.2879   14.9316 N.3     1  UNL1       -0.2658
     11 C          62.6291   83.1761   15.2107 C.3     1  UNL1        0.0781
     12 C          62.1985   82.2609   14.1030 C.3     1  UNL1        0.0839
     13 C          62.7353   82.4576   12.7162 C.3     1  UNL1        0.2666
     14 F          62.9636   82.2421   11.2494 F       1  UNL1       -0.2042
     15 F          61.8471   81.2709   12.4859 F       1  UNL1       -0.2042
     16 C          63.7027   83.5694   12.4371 C.3     1  UNL1        0.0839
     17 C          64.1333   84.4845   13.5448 C.3     1  UNL1        0.0781
     18 O          64.5473   91.9296   14.7227 O.3     1  UNL1       -0.4754
     19 C          65.9849   92.3342   14.5830 C.3     1  UNL1        0.2068
     20 C          66.3916   93.2990   13.5087 C.3     1  UNL1        0.0646
     21 C          66.6772   92.8015   12.1228 C.3     1  UNL1        0.0759
     22 C          68.3455   92.1900    9.3856 C.3     1  UNL1        0.0173
     23 C          67.7096   93.4967    9.7573 C.3     1  UNL1        0.0576
     24 C          67.7289   94.7517    8.9360 C.3     1  UNL1        0.0174
     25 C          66.9740   95.8086    9.6867 C.3     1  UNL1        0.0187
     26 C          66.4882   95.2066   10.9718 C.3     1  UNL1        0.0721
     27 N          66.9428   93.7778   11.0154 N.3     1  UNL1       -0.2738
@<TRIPOS>BOND
     1    23    22    1
     2    23    24    1
     3    24    25    1
     4    25    26    1
     5    26    27    1
     6    27    21    1
     7    21    20    1
     8    20    19    1
     9    19    18    1
    10    18     1    1
    11     1     2   ar
    12     2     3   ar
    13     3     4   ar
    14     4     7    1
    15     7     8    2
    16     7     9    1
    17     9    10    1
    18    10    11    1
    19    11    12    1
    20    12    13    1
    21    13    14    1
    22    13    15    1
    23    13    16    1
    24    16    17    1
    25     4     5   ar
    26     5     6   ar
    27    27    23    1
    28     6     1   ar
    29    17    10    1
@<TRIPOS>MOLECULE
*****
 27 29 0 0 0
SMALL
GASTEIGER

@<TRIPOS>ATOM
      1 C          62.9675   89.3062   12.4407 C.ar    1  UNL1        0.1386
      2 C          63.7604   88.9737   13.6698 C.ar    1  UNL1        0.0370
      3 C          64.7858   89.9398   14.1849 C.ar    1  UNL1        0.0060
      4 C          65.0182   91.2383   13.4710 C.ar    1  UNL1        0.0363
      5 C          64.2253   91.5709   12.2419 C.ar    1  UNL1        0.0060
      6 C          63.2000   90.6048   11.7268 C.ar    1  UNL1        0.0370
      7 C          66.0436   92.2044   13.9862 C.2     1  UNL1        0.1892
      8 O          66.7717   91.9140   15.2651 O.2     1  UNL1       -0.2899
      9 C          66.3408   93.4608   13.2226 C.3     1  UNL1        0.1423
     10 N          66.8958   93.3793   11.8314 N.3     1  UNL1       -0.2658
     11 C          66.5823   94.4555   10.8346 C.3     1  UNL1        0.0781
     12 C          67.1373   94.3740    9.4435 C.3     1  UNL1        0.0839
     13 C          68.0058   93.2164    9.0491 C.3     1  UNL1        0.2666
     14 F          68.8696   92.3251    8.2069 F       1  UNL1       -0.2042
     15 F          67.9923   93.9830    7.7599 F       1  UNL1       -0.2042
     16 C          68.3193   92.1403   10.0458 C.3     1  UNL1        0.0839
     17 C          67.7643   92.2217   11.4370 C.3     1  UNL1        0.0781
     18 O          61.9422   88.3402   11.9255 O.3     1  UNL1       -0.4754
     19 C          62.3709   87.1519   11.1166 C.3     1  UNL1        0.2068
     20 C          62.0426   85.7661   11.5876 C.3     1  UNL1        0.0646
     21 C          62.9638   85.0586   12.5367 C.3     1  UNL1        0.0759
     22 C          63.8900   82.8293   10.3409 C.3     1  UNL1        0.0173
     23 C          63.2997   82.5455   11.6903 C.3     1  UNL1        0.0576
     24 C          63.0315   81.1872   12.2674 C.3     1  UNL1        0.0174
     25 C          62.4400   81.3724   13.6334 C.3     1  UNL1        0.0187
     26 C          62.3426   82.8452   13.9005 C.3     1  UNL1        0.0721
     27 N          62.8740   83.5702   12.6996 N.3     1  UNL1       -0.2738
@<TRIPOS>BOND
     1    23    22    1
     2    23    24    1
     3    24    25    1
     4    25    26    1
     5    26    27    1
     6    27    21    1
     7    21    20    1
     8    20    19    1
     9    19    18    1
    10    18     1    1
    11     1     2   ar
    12     2     3   ar
    13     3     4   ar
    14     4     7    1
    15     7     8    2
    16     7     9    1
    17     9    10    1
    18    10    11    1
    19    11    12    1
    20    12    13    1
    21    13    14    1
    22    13    15    1
    23    13    16    1
    24    16    17    1
    25     4     5   ar
    26     5     6   ar
    27    27    23    1
    28     6     1   ar
    29    17    10    1
@<TRIPOS>MOLECULE
*****
 27 29 0 0 0
SMALL
GASTEIGER

@<TRIPOS>ATOM
      1 C          63.8186   85.9022   15.7536 C.ar    1  UNL1        0.1386
      2 C          64.4581   86.6746   14.6381 C.ar    1  UNL1        0.0370
      3 C          64.4295   88.1742   14.6516 C.ar    1  UNL1        0.0060
      4 C          63.7615   88.9015   15.7807 C.ar    1  UNL1        0.0363
      5 C          63.1220   88.1291   16.8962 C.ar    1  UNL1        0.0060
      6 C          63.1506   86.6295   16.8827 C.ar    1  UNL1        0.0370
      7 C          63.7330   90.4012   15.7942 C.2     1  UNL1        0.1892
      8 O          63.0780   91.1286   16.9308 O.2     1  UNL1       -0.2899
      9 C          64.3595   91.1734   14.6713 C.3     1  UNL1        0.1423
     10 N          65.7477   91.7218   14.8210 N.3     1  UNL1       -0.2658
     11 C          66.0933   92.5749   16.0054 C.3     1  UNL1        0.0781
     12 C          67.4814   93.1232   16.1551 C.3     1  UNL1        0.0839
     13 C          68.5238   92.8186   15.1204 C.3     1  UNL1        0.2666
     14 F          69.8458   92.8091   14.4116 F       1  UNL1       -0.2042
     15 F          69.3286   93.6683   16.0586 F       1  UNL1       -0.2042
     16 C          68.1782   91.9655   13.9360 C.3     1  UNL1        0.0839
     17 C          66.7901   91.4172   13.7863 C.3     1  UNL1        0.0781
     18 O          63.8471   84.4025   15.7401 O.3     1  UNL1       -0.4754
     19 C          62.5712   83.6295   15.5840 C.3     1  UNL1        0.2068
     20 C          62.3021   82.8743   14.3161 C.3     1  UNL1        0.0646
     21 C          63.2812   82.9401   13.1818 C.3     1  UNL1        0.0759
     22 C          64.3189   82.5140   10.1173 C.3     1  UNL1        0.0173
     23 C          63.5101   83.6724   10.6213 C.3     1  UNL1        0.0576
     24 C          63.0363   84.8383    9.8051 C.3     1  UNL1        0.0174
     25 C          62.2665   85.7548   10.7093 C.3     1  UNL1        0.0187
     26 C          62.2646   85.1553   12.0843 C.3     1  UNL1        0.0721
     27 N          63.0332   83.8682   12.0299 N.3     1  UNL1       -0.2738
@<TRIPOS>BOND
     1    23    22    1
     2    23    24    1
     3    24    25    1
     4    25    26    1
     5    26    27    1
     6    27    21    1
     7    21    20    1
     8    20    19    1
     9    19    18    1
    10    18     1    1
    11     1     2   ar
    12     2     3   ar
    13     3     4   ar
    14     4     7    1
    15     7     8    2
    16     7     9    1
    17     9    10    1
    18    10    11    1
    19    11    12    1
    20    12    13    1
    21    13    14    1
    22    13    15    1
    23    13    16    1
    24    16    17    1
    25     4     5   ar
    26     5     6   ar
    27    27    23    1
    28     6     1   ar
    29    17    10    1
@<TRIPOS>MOLECULE
*****
 27 29 0 0 0
SMALL
GASTEIGER

@<TRIPOS>ATOM
      1 C          64.2803   90.5135   13.7586 C.ar    1  UNL1        0.1386
      2 C          63.5344   90.1897   12.4981 C.ar    1  UNL1        0.0370
      3 C          63.1567   88.7703   12.1938 C.ar    1  UNL1        0.0060
      4 C          63.5248   87.6747   13.1499 C.ar    1  UNL1        0.0363
      5 C          64.2706   87.9985   14.4103 C.ar    1  UNL1        0.0060
      6 C          64.6484   89.4178   14.7147 C.ar    1  UNL1        0.0370
      7 C          63.1470   86.2553   12.8454 C.2     1  UNL1        0.1892
      8 O          62.0563   85.9649   11.8574 O.2     1  UNL1       -0.2899
      9 C          63.8598   85.1264   13.5291 C.3     1  UNL1        0.1423
     10 N          63.3706   83.7185   13.3598 N.3     1  UNL1       -0.2658
     11 C          63.8392   82.8965   12.1959 C.3     1  UNL1        0.0781
     12 C          63.3501   81.4887   12.0267 C.3     1  UNL1        0.0839
     13 C          62.3922   80.9028   13.0214 C.3     1  UNL1        0.2666
     14 F          61.4881   79.9120   13.6927 F       1  UNL1       -0.2042
     15 F          62.5469   79.7367   12.0907 F       1  UNL1       -0.2042
     16 C          61.9235   81.7248   14.1852 C.3     1  UNL1        0.0839
     17 C          62.4127   83.1327   14.3545 C.3     1  UNL1        0.0781
     18 O          64.6581   91.9329   14.0630 O.3     1  UNL1       -0.4754
     19 C          66.0392   92.2528   14.5530 C.3     1  UNL1        0.2068
     20 C          67.1041   92.6628   13.5794 C.3     1  UNL1        0.0646
     21 C          66.9321   92.3799   12.1164 C.3     1  UNL1        0.0759
     22 C          68.4365   92.2859    9.2221 C.3     1  UNL1        0.0173
     23 C          67.6937   93.4579    9.7921 C.3     1  UNL1        0.0576
     24 C          67.5121   94.7923    9.1317 C.3     1  UNL1        0.0174
     25 C          66.7083   95.6604   10.0539 C.3     1  UNL1        0.0187
     26 C          66.3932   94.8623   11.2843 C.3     1  UNL1        0.0721
     27 N          67.0022   93.5011   11.1224 N.3     1  UNL1       -0.2738
@<TRIPOS>BOND
     1    23    22    1
     2    23    24    1
     3    24    25    1
     4    25    26    1
     5    26    27    1
     6    27    21    1
     7    21    20    1
     8    20    19    1
     9    19    18    1
    10    18     1    1
    11     1     2   ar
    12     2     3   ar
    13     3     4   ar
    14     4     7    1
    15     7     8    2
    16     7     9    1
    17     9    10    1
    18    10    11    1
    19    11    12    1
    20    12    13    1
    21    13    14    1
    22    13    15    1
    23    13    16    1
    24    16    17    1
    25     4     5   ar
    26     5     6   ar
    27    27    23    1
    28     6     1   ar
    29    17    10    1
@<TRIPOS>MOLECULE
*****
 27 29 0 0 0
SMALL
GASTEIGER

@<TRIPOS>ATOM
      1 C          61.6533   86.7956    9.5527 C.ar    1  UNL1        0.1386
      2 C          62.5471   86.0201    8.6310 C.ar    1  UNL1        0.0370
      3 C          63.2545   84.7942    9.1278 C.ar    1  UNL1        0.0060
      4 C          63.0681   84.3439   10.5465 C.ar    1  UNL1        0.0363
      5 C          62.1743   85.1194   11.4682 C.ar    1  UNL1        0.0060
      6 C          61.4669   86.3453   10.9713 C.ar    1  UNL1        0.0370
      7 C          63.7755   83.1180   11.0433 C.2     1  UNL1        0.1892
      8 O          64.8213   82.4594   10.1933 O.2     1  UNL1       -0.2899
      9 C          63.4372   82.5509   12.3901 C.3     1  UNL1        0.1423
     10 N          63.4132   83.4436   13.5953 N.3     1  UNL1       -0.2658
     11 C          64.5385   84.4049   13.8391 C.3     1  UNL1        0.0781
     12 C          64.5145   85.2975   15.0443 C.3     1  UNL1        0.0839
     13 C          63.3652   85.2289   16.0058 C.3     1  UNL1        0.2666
     14 F          62.5028   85.5305   17.1954 F       1  UNL1       -0.2042
     15 F          64.1910   86.2949   16.6627 F       1  UNL1       -0.2042
     16 C          62.2399   84.2676   15.7620 C.3     1  UNL1        0.0839
     17 C          62.2639   83.3749   14.5568 C.3     1  UNL1        0.0781
     18 O          60.9458   88.0215    9.0559 O.3     1  UNL1       -0.4754
     19 C          61.1567   89.3388    9.7416 C.3     1  UNL1        0.2068
     20 C          62.4780   89.6487   10.3805 C.3     1  UNL1        0.0646
     21 C          62.5817   89.7602   11.8728 C.3     1  UNL1        0.0759
     22 C          64.1420   88.9520   14.6226 C.3     1  UNL1        0.0173
     23 C          64.4412   90.1386   13.7552 C.3     1  UNL1        0.0576
     24 C          65.5103   91.1621   13.9995 C.3     1  UNL1        0.0174
     25 C          65.4538   92.1661   12.8864 C.3     1  UNL1        0.0187
     26 C          64.3498   91.7632   11.9543 C.3     1  UNL1        0.0721
     27 N          63.7240   90.5101   12.4912 N.3     1  UNL1       -0.2738
@<TRIPOS>BOND
     1    23    22    1
     2    23    24    1
     3    24    25    1
     4    25    26    1
     5    26    27    1
     6    27    21    1
     7    21    20    1
     8    20    19    1
     9    19    18    1
    10    18     1    1
    11     1     2   ar
    12     2     3   ar
    13     3     4   ar
    14     4     7    1
    15     7     8    2
    16     7     9    1
    17     9    10    1
    18    10    11    1
    19    11    12    1
    20    12    13    1
    21    13    14    1
    22    13    15    1
    23    13    16    1
    24    16    17    1
    25     4     5   ar
    26     5     6   ar
    27    27    23    1
    28     6     1   ar
    29    17    10    1
@<TRIPOS>MOLECULE
*****
 27 29 0 0 0
SMALL
GASTEIGER

@<TRIPOS>ATOM
      1 C          63.5495   89.5743   13.0083 C.ar    1  UNL1        0.1386
      2 C          63.0350   88.4741   12.1280 C.ar    1  UNL1        0.0370
      3 C          63.2257   87.0414   12.5294 C.ar    1  UNL1        0.0060
      4 C          63.9308   86.7090   13.8109 C.ar    1  UNL1        0.0363
      5 C          64.4453   87.8092   14.6911 C.ar    1  UNL1        0.0060
      6 C          64.2546   89.2418   14.2898 C.ar    1  UNL1        0.0370
      7 C          64.1214   85.2762   14.2122 C.2     1  UNL1        0.1892
      8 O          65.4836   84.7802   14.5974 O.2     1  UNL1       -0.2899
      9 C          62.9499   84.3396   14.2281 C.3     1  UNL1        0.1423
     10 N          62.9295   83.1484   13.3166 N.3     1  UNL1       -0.2658
     11 C          63.3194   83.2996   11.8761 C.3     1  UNL1        0.0781
     12 C          63.2989   82.1085   10.9647 C.3     1  UNL1        0.0839
     13 C          62.8885   80.7662   11.4937 C.3     1  UNL1        0.2666
     14 F          62.5759   79.2995   11.5264 F       1  UNL1       -0.2042
     15 F          63.1699   80.4080   10.0646 F       1  UNL1       -0.2042
     16 C          62.4986   80.6151   12.9342 C.3     1  UNL1        0.0839
     17 C          62.5191   81.8062   13.8457 C.3     1  UNL1        0.0781
     18 O          63.3589   91.0070   12.6070 O.3     1  UNL1       -0.4754
     19 C          64.4907   91.7680   11.9827 C.3     1  UNL1        0.2068
     20 C          65.5435   92.3921   12.8501 C.3     1  UNL1        0.0646
     21 C          66.2715   93.6172   12.3822 C.3     1  UNL1        0.0759
     22 C          66.4923   96.1412   10.3255 C.3     1  UNL1        0.0173
     23 C          67.0700   94.7740   10.1087 C.3     1  UNL1        0.0576
     24 C          67.8507   94.3270    8.9084 C.3     1  UNL1        0.0174
     25 C          68.2317   92.8905    9.1119 C.3     1  UNL1        0.0187
     26 C          67.6865   92.4498   10.4380 C.3     1  UNL1        0.0721
     27 N          66.9686   93.6139   11.0540 N.3     1  UNL1       -0.2738
@<TRIPOS>BOND
     1    23    22    1
     2    23    24    1
     3    24    25    1
     4    25    26    1
     5    26    27    1
     6    27    21    1
     7    21    20    1
     8    20    19    1
     9    19    18    1
    10    18     1    1
    11     1     2   ar
    12     2     3   ar
    13     3     4   ar
    14     4     7    1
    15     7     8    2
    16     7     9    1
    17     9    10    1
    18    10    11    1
    19    11    12    1
    20    12    13    1
    21    13    14    1
    22    13    15    1
    23    13    16    1
    24    16    17    1
    25     4     5   ar
    26     5     6   ar
    27    27    23    1
    28     6     1   ar
    29    17    10    1
@<TRIPOS>MOLECULE
*****
 27 29 0 0 0
SMALL
GASTEIGER

@<TRIPOS>ATOM
      1 C          63.6093   90.8857   12.3064 C.ar    1  UNL1        0.1386
      2 C          63.4912   89.4949   12.8556 C.ar    1  UNL1        0.0370
      3 C          62.7921   88.4317   12.0613 C.ar    1  UNL1        0.0060
      4 C          62.2110   88.7594   10.7178 C.ar    1  UNL1        0.0363
      5 C          62.3291   90.1502   10.1686 C.ar    1  UNL1        0.0060
      6 C          63.0282   91.2133   10.9629 C.ar    1  UNL1        0.0370
      7 C          61.5119   87.6962    9.9235 C.2     1  UNL1        0.1892
      8 O          60.0158   87.7024    9.8157 O.2     1  UNL1       -0.2899
      9 C          62.3088   86.6269    9.2370 C.3     1  UNL1        0.1423
     10 N          62.6974   85.3851    9.9835 N.3     1  UNL1       -0.2658
     11 C          62.2203   85.1754   11.3900 C.3     1  UNL1        0.0781
     12 C          62.6089   83.9337   12.1364 C.3     1  UNL1        0.0839
     13 C          63.4746   82.9018   11.4763 C.3     1  UNL1        0.2666
     14 F          64.2706   81.6455   11.2812 F       1  UNL1       -0.2042
     15 F          63.2739   82.2557   12.8151 F       1  UNL1       -0.2042
     16 C          63.9517   83.1115   10.0698 C.3     1  UNL1        0.0839
     17 C          63.5631   84.3532    9.3234 C.3     1  UNL1        0.0781
     18 O          64.3084   91.9489   13.1007 O.3     1  UNL1       -0.4754
     19 C          65.6956   91.7083   13.6180 C.3     1  UNL1        0.2068
     20 C          66.8502   92.4852   13.0580 C.3     1  UNL1        0.0646
     21 C          67.2430   92.3134   11.6206 C.3     1  UNL1        0.0759
     22 C          68.6779   92.4460    8.6927 C.3     1  UNL1        0.0173
     23 C          67.9239   93.5600    9.3563 C.3     1  UNL1        0.0576
     24 C          67.6970   94.9306    8.7905 C.3     1  UNL1        0.0174
     25 C          66.8972   95.7167    9.7867 C.3     1  UNL1        0.0187
     26 C          66.6298   94.8320   10.9681 C.3     1  UNL1        0.0721
     27 N          67.2643   93.4991   10.7021 N.3     1  UNL1       -0.2738
@<TRIPOS>BOND
     1    23    22    1
     2    23    24    1
     3    24    25    1
     4    25    26    1
     5    26    27    1
     6    27    21    1
     7    21    20    1
     8    20    19    1
     9    19    18    1
    10    18     1    1
    11     1     2   ar
    12     2     3   ar
    13     3     4   ar
    14     4     7    1
    15     7     8    2
    16     7     9    1
    17     9    10    1
    18    10    11    1
    19    11    12    1
    20    12    13    1
    21    13    14    1
    22    13    15    1
    23    13    16    1
    24    16    17    1
    25     4     5   ar
    26     5     6   ar
    27    27    23    1
    28     6     1   ar
    29    17    10    1
@<TRIPOS>MOLECULE
*****
 27 29 0 0 0
SMALL
GASTEIGER

@<TRIPOS>ATOM
      1 C          61.7924   86.7262    9.6615 C.ar    1  UNL1        0.1386
      2 C          62.6878   85.8054    8.8868 C.ar    1  UNL1        0.0370
      3 C          63.2663   84.5898    9.5483 C.ar    1  UNL1        0.0060
      4 C          62.9495   84.2951   10.9845 C.ar    1  UNL1        0.0363
      5 C          62.0541   85.2159   11.7592 C.ar    1  UNL1        0.0060
      6 C          61.4756   86.4315   11.0977 C.ar    1  UNL1        0.0370
      7 C          63.5280   83.0794   11.6460 C.2     1  UNL1        0.1892
      8 O          63.2181   81.7139   11.1082 O.2     1  UNL1       -0.2899
      9 C          64.4165   83.2294   12.8452 C.3     1  UNL1        0.1423
     10 N          63.9839   84.0882   13.9964 N.3     1  UNL1       -0.2658
     11 C          62.8670   83.6374   14.8904 C.3     1  UNL1        0.0781
     12 C          62.4345   84.4962   16.0416 C.3     1  UNL1        0.0839
     13 C          63.1189   85.8060   16.2987 C.3     1  UNL1        0.2666
     14 F          63.4559   87.1173   16.9443 F       1  UNL1       -0.2042
     15 F          62.1190   85.8105   17.4169 F       1  UNL1       -0.2042
     16 C          64.2358   86.2569   15.4048 C.3     1  UNL1        0.0839
     17 C          64.6683   85.3980   14.2536 C.3     1  UNL1        0.0781
     18 O          61.2139   87.9419    9.0000 O.3     1  UNL1       -0.4754
     19 C          61.2653   89.2701    9.6951 C.3     1  UNL1        0.2068
     20 C          62.5571   89.7625   10.2771 C.3     1  UNL1        0.0646
     21 C          62.5473   90.8415   11.3190 C.3     1  UNL1        0.0759
     22 C          65.2700   92.6025   11.6869 C.3     1  UNL1        0.0173
     23 C          64.7444   91.5799   12.6502 C.3     1  UNL1        0.0576
     24 C          65.3781   91.1872   13.9519 C.3     1  UNL1        0.0174
     25 C          64.5183   90.1351   14.5873 C.3     1  UNL1        0.0187
     26 C          63.3532   89.8775   13.6783 C.3     1  UNL1        0.0721
     27 N          63.4930   90.7705   12.4812 N.3     1  UNL1       -0.2738
@<TRIPOS>BOND
     1    23    22    1
     2    23    24    1
     3    24    25    1
     4    25    26    1
     5    26    27    1
     6    27    21    1
     7    21    20    1
     8    20    19    1
     9    19    18    1
    10    18     1    1
    11     1     2   ar
    12     2     3   ar
    13     3     4   ar
    14     4     7    1
    15     7     8    2
    16     7     9    1
    17     9    10    1
    18    10    11    1
    19    11    12    1
    20    12    13    1
    21    13    14    1
    22    13    15    1
    23    13    16    1
    24    16    17    1
    25     4     5   ar
    26     5     6   ar
    27    27    23    1
    28     6     1   ar
    29    17    10    1
@<TRIPOS>MOLECULE
*****
 27 29 0 0 0
SMALL
GASTEIGER

@<TRIPOS>ATOM
      1 C          63.2753   84.2954   10.0148 C.ar    1  UNL1        0.1386
      2 C          64.1714   83.2015   10.5151 C.ar    1  UNL1        0.0370
      3 C          64.2189   82.8820   11.9799 C.ar    1  UNL1        0.0060
      4 C          63.3702   83.6563   12.9444 C.ar    1  UNL1        0.0363
      5 C          62.4741   84.7502   12.4440 C.ar    1  UNL1        0.0060
      6 C          62.4266   85.0697   10.9792 C.ar    1  UNL1        0.0370
      7 C          63.4177   83.3368   14.4092 C.2     1  UNL1        0.1892
      8 O          62.5660   82.2338   14.9642 O.2     1  UNL1       -0.2899
      9 C          64.3168   84.1202   15.3190 C.3     1  UNL1        0.1423
     10 N          64.0507   85.5758   15.5651 N.3     1  UNL1       -0.2658
     11 C          64.5907   86.6074   14.6195 C.3     1  UNL1        0.0781
     12 C          64.3245   88.0629   14.8657 C.3     1  UNL1        0.0839
     13 C          63.5184   88.4868   16.0575 C.3     1  UNL1        0.2666
     14 F          62.8150   89.3763   17.0393 F       1  UNL1       -0.2042
     15 F          63.8141   89.8273   15.4529 F       1  UNL1       -0.2042
     16 C          62.9784   87.4552   17.0031 C.3     1  UNL1        0.0839
     17 C          63.2445   85.9997   16.7570 C.3     1  UNL1        0.0781
     18 O          63.2278   84.6149    8.5500 O.3     1  UNL1       -0.4754
     19 C          62.4713   85.8174    8.0688 C.3     1  UNL1        0.2068
     20 C          61.0844   85.6606    7.5193 C.3     1  UNL1        0.0646
     21 C          59.9129   86.2237    8.2679 C.3     1  UNL1        0.0759
     22 C          59.6192   89.2353    7.0460 C.3     1  UNL1        0.0173
     23 C          59.9235   88.8887    8.4733 C.3     1  UNL1        0.0576
     24 C          60.1462   89.8656    9.5896 C.3     1  UNL1        0.0174
     25 C          60.4188   89.0851   10.8412 C.3     1  UNL1        0.0187
     26 C          60.3646   87.6258   10.4984 C.3     1  UNL1        0.0721
     27 N          60.0585   87.5044    9.0350 N.3     1  UNL1       -0.2738
@<TRIPOS>BOND
     1    23    22    1
     2    23    24    1
     3    24    25    1
     4    25    26    1
     5    26    27    1
     6    27    21    1
     7    21    20    1
     8    20    19    1
     9    19    18    1
    10    18     1    1
    11     1     2   ar
    12     2     3   ar
    13     3     4   ar
    14     4     7    1
    15     7     8    2
    16     7     9    1
    17     9    10    1
    18    10    11    1
    19    11    12    1
    20    12    13    1
    21    13    14    1
    22    13    15    1
    23    13    16    1
    24    16    17    1
    25     4     5   ar
    26     5     6   ar
    27    27    23    1
    28     6     1   ar
    29    17    10    1
