@<TRIPOS>MOLECULE
*****
 21 23 0 0 0
SMALL
GASTEIGER

@<TRIPOS>ATOM
      1 C          62.8463   85.8549   12.5459 C.3     1  UNL1        0.2082
      2 S          62.0472   85.5047   11.3256 S.3     1  UNL1       -0.0751
      3 C          61.6312   86.5809   10.3672 C.2     1  UNL1        0.0470
      4 C          62.0142   88.0074   10.6290 C.2     1  UNL1        0.0551
      5 C          61.5982   89.0836    9.6706 C.3     1  UNL1        0.0512
      6 N          62.8133   88.3576   11.8492 N.ar    1  UNL1       -0.2279
      7 C          63.2293   87.2813   12.8076 C.ar    1  UNL1        0.2066
      8 N          64.0070   87.9242   13.9175 N.ar    1  UNL1       -0.0545
      9 O          64.0715   89.3978   13.6451 O.2     1  UNL1       -0.2950
     10 C          63.3338   89.6657   12.3668 C.ar    1  UNL1        0.4470
     11 O          63.1491   91.0062   11.7197 O.2     1  UNL1       -0.2203
     12 C          62.7262   84.3711   12.7300 C.ar    1  UNL1        0.0189
     13 C          63.0640   83.4452   11.5992 C.ar    1  UNL1       -0.0002
     14 C          62.9440   81.9615   11.7832 C.ar    1  UNL1        0.0065
     15 C          62.4862   81.4034   13.0981 C.ar    1  UNL1        0.0345
     16 BR         62.3662   79.9196   13.2821 Br      1  UNL1       -0.0490
     17 C          62.1484   82.3292   14.2289 C.ar    1  UNL1        0.0065
     18 C          62.2684   83.8130   14.0449 C.ar    1  UNL1       -0.0002
     19 O          63.6036   85.6897   13.8300 O.3     1  UNL1       -0.3379
     20 C          65.9583   85.2026   14.8140 C.3     1  UNL1        0.0347
     21 C          64.8507   84.8568   13.8635 C.3     1  UNL1        0.1440
@<TRIPOS>BOND
     1    20    21    1
     2    21    19    1
     3    19     1    1
     4     1    12    1
     5    12    13   ar
     6    13    14   ar
     7    14    15   ar
     8    15    16    1
     9    15    17   ar
    10    17    18   ar
    11     1     2    1
    12     2     3    1
    13     3     4    2
    14     4     5    1
    15     4     6    1
    16     6     7   ar
    17     7     8   ar
    18     8     9   ar
    19     9    10   ar
    20    10    11    2
    21     7     1    1
    22    18    12   ar
    23    10     6   ar
@<TRIPOS>MOLECULE
*****
 21 23 0 0 0
SMALL
GASTEIGER

@<TRIPOS>ATOM
      1 C          64.5146   90.6149   13.8214 C.3     1  UNL1        0.2082
      2 S          65.1807   91.0462   15.0944 S.3     1  UNL1       -0.0751
      3 C          65.9865   92.3108   15.1281 C.2     1  UNL1        0.0470
      4 C          66.1265   93.1442   13.8888 C.2     1  UNL1        0.0551
      5 C          66.9324   94.4089   13.9225 C.3     1  UNL1        0.0512
      6 N          65.4604   92.7129   12.6159 N.ar    1  UNL1       -0.2279
      7 C          64.6545   91.4483   12.5822 C.ar    1  UNL1        0.2066
      8 N          64.1166   91.2782   11.1923 N.ar    1  UNL1       -0.0545
      9 O          64.5900   92.4379   10.3670 O.2     1  UNL1       -0.2950
     10 C          65.4206   93.3245   11.2468 C.ar    1  UNL1        0.4470
     11 O          66.0932   94.5991   10.8306 O.2     1  UNL1       -0.2203
     12 C          64.0926   89.4969   14.7280 C.ar    1  UNL1        0.0189
     13 C          63.3659   89.8003   16.0048 C.ar    1  UNL1       -0.0002
     14 C          62.9438   88.6824   16.9114 C.ar    1  UNL1        0.0065
     15 C          63.2483   87.2609   16.5414 C.ar    1  UNL1        0.0345
     16 BR         62.8262   86.1431   17.4481 Br      1  UNL1       -0.0490
     17 C          63.9750   86.9575   15.2647 C.ar    1  UNL1        0.0065
     18 C          64.3971   88.0755   14.3580 C.ar    1  UNL1       -0.0002
     19 O          63.7020   89.7954   12.8634 O.3     1  UNL1       -0.3379
     20 C          61.4341   89.3014   11.6961 C.3     1  UNL1        0.0347
     21 C          62.2246   90.0258   12.7451 C.3     1  UNL1        0.1440
@<TRIPOS>BOND
     1    20    21    1
     2    21    19    1
     3    19     1    1
     4     1    12    1
     5    12    13   ar
     6    13    14   ar
     7    14    15   ar
     8    15    16    1
     9    15    17   ar
    10    17    18   ar
    11     1     2    1
    12     2     3    1
    13     3     4    2
    14     4     5    1
    15     4     6    1
    16     6     7   ar
    17     7     8   ar
    18     8     9   ar
    19     9    10   ar
    20    10    11    2
    21     7     1    1
    22    18    12   ar
    23    10     6   ar
@<TRIPOS>MOLECULE
*****
 21 23 0 0 0
SMALL
GASTEIGER

@<TRIPOS>ATOM
      1 C          62.4882   89.9087   11.5569 C.3     1  UNL1        0.2082
      2 S          63.0764   90.5017   10.3108 S.3     1  UNL1       -0.0751
      3 C          64.1644   91.5292   10.4105 C.2     1  UNL1        0.0470
      4 C          64.6645   91.9640   11.7562 C.2     1  UNL1        0.0551
      5 C          65.7526   92.9916   11.8559 C.3     1  UNL1        0.0512
      6 N          64.0763   91.3711   13.0023 N.ar    1  UNL1       -0.2279
      7 C          62.9882   90.3434   12.9026 C.ar    1  UNL1        0.2066
      8 N          62.6036   89.9390   14.2949 N.ar    1  UNL1       -0.0545
      9 O          63.4540   90.7167   15.2550 O.2     1  UNL1       -0.2950
     10 C          64.3642   91.6017   14.4562 C.ar    1  UNL1        0.4470
     11 O          65.3834   92.5508   15.0135 O.2     1  UNL1       -0.2203
     12 C          61.6874   89.1802   10.5186 C.ar    1  UNL1        0.0189
     13 C          61.8117   87.6915   10.3837 C.ar    1  UNL1       -0.0002
     14 C          61.0110   86.9629    9.3455 C.ar    1  UNL1        0.0065
     15 C          60.0858   87.7231    8.4420 C.ar    1  UNL1        0.0345
     16 BR         59.2850   86.9946    7.4038 Br      1  UNL1       -0.0490
     17 C          59.9614   89.2119    8.5769 C.ar    1  UNL1        0.0065
     18 C          60.7622   89.9404    9.6152 C.ar    1  UNL1       -0.0002
     19 O          61.6220   89.0628   12.4423 O.3     1  UNL1       -0.3379
     20 C          59.0370   88.8106   12.5076 C.3     1  UNL1        0.0347
     21 C          60.2783   89.5663   12.8793 C.3     1  UNL1        0.1440
@<TRIPOS>BOND
     1    20    21    1
     2    21    19    1
     3    19     1    1
     4     1    12    1
     5    12    13   ar
     6    13    14   ar
     7    14    15   ar
     8    15    16    1
     9    15    17   ar
    10    17    18   ar
    11     1     2    1
    12     2     3    1
    13     3     4    2
    14     4     5    1
    15     4     6    1
    16     6     7   ar
    17     7     8   ar
    18     8     9   ar
    19     9    10   ar
    20    10    11    2
    21     7     1    1
    22    18    12   ar
    23    10     6   ar
@<TRIPOS>MOLECULE
*****
 21 23 0 0 0
SMALL
GASTEIGER

@<TRIPOS>ATOM
      1 C          63.6181   90.7124   12.2424 C.3     1  UNL1        0.2082
      2 S          63.6727   91.3456   10.8836 S.3     1  UNL1       -0.0751
      3 C          64.5910   92.5047   10.6326 C.2     1  UNL1        0.0470
      4 C          65.4549   93.0306   11.7404 C.2     1  UNL1        0.0551
      5 C          66.3732   94.1898   11.4894 C.3     1  UNL1        0.0512
      6 N          65.4004   92.3975   13.0991 N.ar    1  UNL1       -0.2279
      7 C          64.4820   91.2383   13.3501 C.ar    1  UNL1        0.2066
      8 N          64.6426   90.8213   14.7819 N.ar    1  UNL1       -0.0545
      9 O          65.6602   91.7226   15.4159 O.2     1  UNL1       -0.2950
     10 C          66.1286   92.6968   14.3758 C.ar    1  UNL1        0.4470
     11 O          67.1464   93.7801   14.5772 O.2     1  UNL1       -0.2203
     12 C          62.6143   89.8643   11.5192 C.ar    1  UNL1        0.0189
     13 C          63.0489   89.0024   10.3710 C.ar    1  UNL1       -0.0002
     14 C          62.0451   88.1543    9.6478 C.ar    1  UNL1        0.0065
     15 C          60.6066   88.1679   10.0728 C.ar    1  UNL1        0.0345
     16 BR         59.6029   87.3198    9.3496 Br      1  UNL1       -0.0490
     17 C          60.1720   89.0298   11.2210 C.ar    1  UNL1        0.0065
     18 C          61.1758   89.8779   11.9442 C.ar    1  UNL1       -0.0002
     19 O          63.2150   89.7847   13.3499 O.3     1  UNL1       -0.3379
     20 C          64.2946   87.7722   14.5887 C.3     1  UNL1        0.0347
     21 C          63.6922   88.3626   13.3483 C.3     1  UNL1        0.1440
@<TRIPOS>BOND
     1    20    21    1
     2    21    19    1
     3    19     1    1
     4     1    12    1
     5    12    13   ar
     6    13    14   ar
     7    14    15   ar
     8    15    16    1
     9    15    17   ar
    10    17    18   ar
    11     1     2    1
    12     2     3    1
    13     3     4    2
    14     4     5    1
    15     4     6    1
    16     6     7   ar
    17     7     8   ar
    18     8     9   ar
    19     9    10   ar
    20    10    11    2
    21     7     1    1
    22    18    12   ar
    23    10     6   ar
@<TRIPOS>MOLECULE
*****
 21 23 0 0 0
SMALL
GASTEIGER

@<TRIPOS>ATOM
      1 C          62.4774   85.5742   11.8946 C.3     1  UNL1        0.2082
      2 S          62.2807   84.4446   10.9273 S.3     1  UNL1       -0.0751
      3 C          62.8027   83.0772   11.2548 C.2     1  UNL1        0.0470
      4 C          63.5216   82.8391   12.5496 C.2     1  UNL1        0.0551
      5 C          64.0437   81.4715   12.8771 C.3     1  UNL1        0.0512
      6 N          63.7184   83.9685   13.5169 N.ar    1  UNL1       -0.2279
      7 C          63.1963   85.3360   13.1894 C.ar    1  UNL1        0.2066
      8 N          63.5377   86.2481   14.3302 N.ar    1  UNL1       -0.0545
      9 O          64.2708   85.4442   15.3629 O.2     1  UNL1       -0.2950
     10 C          64.3825   84.0353   14.8602 C.ar    1  UNL1        0.4470
     11 O          65.0424   82.8938   15.5753 O.2     1  UNL1       -0.2203
     12 C          61.7377   86.2909   10.8042 C.ar    1  UNL1        0.0189
     13 C          60.6612   87.2764   11.1505 C.ar    1  UNL1       -0.0002
     14 C          59.9214   87.9931   10.0602 C.ar    1  UNL1        0.0065
     15 C          60.2581   87.7245    8.6233 C.ar    1  UNL1        0.0345
     16 BR         59.5182   88.4412    7.5330 Br      1  UNL1       -0.0490
     17 C          61.3346   86.7390    8.2770 C.ar    1  UNL1        0.0065
     18 C          62.0744   86.0222    9.3674 C.ar    1  UNL1       -0.0002
     19 O          62.4173   86.9525   12.4832 O.3     1  UNL1       -0.3379
     20 C          63.3388   89.3795   12.5859 C.3     1  UNL1        0.0347
     21 C          63.2230   88.0629   11.8766 C.3     1  UNL1        0.1440
@<TRIPOS>BOND
     1    20    21    1
     2    21    19    1
     3    19     1    1
     4     1    12    1
     5    12    13   ar
     6    13    14   ar
     7    14    15   ar
     8    15    16    1
     9    15    17   ar
    10    17    18   ar
    11     1     2    1
    12     2     3    1
    13     3     4    2
    14     4     5    1
    15     4     6    1
    16     6     7   ar
    17     7     8   ar
    18     8     9   ar
    19     9    10   ar
    20    10    11    2
    21     7     1    1
    22    18    12   ar
    23    10     6   ar
@<TRIPOS>MOLECULE
*****
 21 23 0 0 0
SMALL
GASTEIGER

@<TRIPOS>ATOM
      1 C          62.8645   84.6773   12.7728 C.3     1  UNL1        0.2082
      2 S          63.3024   84.7656   11.3408 S.3     1  UNL1       -0.0751
      3 C          63.4669   83.5156   10.5284 C.2     1  UNL1        0.0470
      4 C          63.1936   82.1771   11.1478 C.2     1  UNL1        0.0551
      5 C          63.3581   80.9270   10.3353 C.3     1  UNL1        0.0512
      6 N          62.7557   82.0887   12.5797 N.ar    1  UNL1       -0.2279
      7 C          62.5912   83.3388   13.3922 C.ar    1  UNL1        0.2066
      8 N          62.1499   82.9417   14.7697 N.ar    1  UNL1       -0.0545
      9 O          62.0417   81.4461   14.8086 O.2     1  UNL1       -0.2950
     10 C          62.4161   80.9189   13.4551 C.ar    1  UNL1        0.4470
     11 O          62.4457   79.4754   13.0484 O.2     1  UNL1       -0.2203
     12 C          63.0024   86.1645   12.6338 C.ar    1  UNL1        0.0189
     13 C          63.8351   86.9354   13.6148 C.ar    1  UNL1       -0.0002
     14 C          63.9731   88.4225   13.4759 C.ar    1  UNL1        0.0065
     15 C          63.2783   89.1389   12.3559 C.ar    1  UNL1        0.0345
     16 BR         63.4163   90.6260   12.2170 Br      1  UNL1       -0.0490
     17 C          62.4457   88.3680   11.3749 C.ar    1  UNL1        0.0065
     18 C          62.3077   86.8808   11.5139 C.ar    1  UNL1       -0.0002
     19 O          62.4746   85.1054   14.1564 O.3     1  UNL1       -0.3379
     20 C          63.2126   85.6978   16.5761 C.3     1  UNL1        0.0347
     21 C          63.4509   84.9688   15.2869 C.3     1  UNL1        0.1440
@<TRIPOS>BOND
     1    20    21    1
     2    21    19    1
     3    19     1    1
     4     1    12    1
     5    12    13   ar
     6    13    14   ar
     7    14    15   ar
     8    15    16    1
     9    15    17   ar
    10    17    18   ar
    11     1     2    1
    12     2     3    1
    13     3     4    2
    14     4     5    1
    15     4     6    1
    16     6     7   ar
    17     7     8   ar
    18     8     9   ar
    19     9    10   ar
    20    10    11    2
    21     7     1    1
    22    18    12   ar
    23    10     6   ar
@<TRIPOS>MOLECULE
*****
 21 23 0 0 0
SMALL
GASTEIGER

@<TRIPOS>ATOM
      1 C          60.4342   93.9885   -0.5227 C.3     1  UNL1        0.2082
      2 S          59.8025   93.4113    0.7094 S.3     1  UNL1       -0.0751
      3 C          60.6642   92.8506    1.8016 C.2     1  UNL1        0.0470
      4 C          62.1576   92.8671    1.6619 C.2     1  UNL1        0.0551
      5 C          63.0193   92.3064    2.7542 C.3     1  UNL1        0.0512
      6 N          62.7893   93.4442    0.4299 N.ar    1  UNL1       -0.2279
      7 C          61.9276   94.0049   -0.6624 C.ar    1  UNL1        0.2066
      8 N          62.8281   94.5042   -1.7532 N.ar    1  UNL1       -0.0545
      9 O          64.2464   94.2520   -1.3350 O.2     1  UNL1       -0.2950
     10 C          64.2224   93.5969    0.0142 C.ar    1  UNL1        0.4470
     11 O          65.4211   93.1696    0.8082 O.2     1  UNL1       -0.2203
     12 C          58.9854   94.1977   -0.8503 C.ar    1  UNL1        0.0189
     13 C          58.0789   93.0162   -1.0298 C.ar    1  UNL1       -0.0002
     14 C          56.6302   93.2252   -1.3574 C.ar    1  UNL1        0.0065
     15 C          56.0878   94.6159   -1.5055 C.ar    1  UNL1        0.0345
     16 BR         54.6391   94.8250   -1.8331 Br      1  UNL1       -0.0490
     17 C          56.9943   95.7975   -1.3260 C.ar    1  UNL1        0.0065
     18 C          58.4431   95.5883   -0.9984 C.ar    1  UNL1       -0.0002
     19 O          60.5627   94.6383   -1.8685 O.3     1  UNL1       -0.3379
     20 C          59.8911   94.4294   -4.3696 C.3     1  UNL1        0.0347
     21 C          60.4355   93.8135   -3.1149 C.3     1  UNL1        0.1440
@<TRIPOS>BOND
     1    20    21    1
     2    21    19    1
     3    19     1    1
     4     1    12    1
     5    12    13   ar
     6    13    14   ar
     7    14    15   ar
     8    15    16    1
     9    15    17   ar
    10    17    18   ar
    11     1     2    1
    12     2     3    1
    13     3     4    2
    14     4     5    1
    15     4     6    1
    16     6     7   ar
    17     7     8   ar
    18     8     9   ar
    19     9    10   ar
    20    10    11    2
    21     7     1    1
    22    18    12   ar
    23    10     6   ar
@<TRIPOS>MOLECULE
*****
 21 23 0 0 0
SMALL
GASTEIGER

@<TRIPOS>ATOM
      1 C          63.2771   89.2222   12.6275 C.3     1  UNL1        0.2082
      2 S          62.7586   90.5556   12.1763 S.3     1  UNL1       -0.0751
      3 C          61.7213   90.6302   11.0954 C.2     1  UNL1        0.0470
      4 C          61.2024   89.3716   10.4656 C.2     1  UNL1        0.0551
      5 C          60.1651   89.4463    9.3847 C.3     1  UNL1        0.0512
      6 N          61.7208   88.0383   10.9168 N.ar    1  UNL1       -0.2279
      7 C          62.7581   87.9636   11.9977 C.ar    1  UNL1        0.2066
      8 N          63.0784   86.5174   12.2337 N.ar    1  UNL1       -0.0545
      9 O          62.2391   85.6982   11.2986 O.2     1  UNL1       -0.2950
     10 C          61.4000   86.6382   10.4847 C.ar    1  UNL1        0.4470
     11 O          60.4134   86.2468    9.4248 O.2     1  UNL1       -0.2203
     12 C          64.0718   90.1270   13.5218 C.ar    1  UNL1        0.0189
     13 C          65.3424   90.7482   13.0220 C.ar    1  UNL1       -0.0002
     14 C          66.1372   91.6530   13.9162 C.ar    1  UNL1        0.0065
     15 C          65.6615   91.9365   15.3103 C.ar    1  UNL1        0.0345
     16 BR         66.4563   92.8413   16.2044 Br      1  UNL1       -0.0490
     17 C          64.3910   91.3153   15.8100 C.ar    1  UNL1        0.0065
     18 C          63.5961   90.4105   14.9158 C.ar    1  UNL1       -0.0002
     19 O          64.0715   88.2031   13.3892 O.3     1  UNL1       -0.3379
     20 C          64.1768   86.6387   15.4608 C.3     1  UNL1        0.0347
     21 C          63.7608   87.9355   14.8321 C.3     1  UNL1        0.1440
@<TRIPOS>BOND
     1    20    21    1
     2    21    19    1
     3    19     1    1
     4     1    12    1
     5    12    13   ar
     6    13    14   ar
     7    14    15   ar
     8    15    16    1
     9    15    17   ar
    10    17    18   ar
    11     1     2    1
    12     2     3    1
    13     3     4    2
    14     4     5    1
    15     4     6    1
    16     6     7   ar
    17     7     8   ar
    18     8     9   ar
    19     9    10   ar
    20    10    11    2
    21     7     1    1
    22    18    12   ar
    23    10     6   ar
@<TRIPOS>MOLECULE
*****
 21 23 0 0 0
SMALL
GASTEIGER

@<TRIPOS>ATOM
      1 C          63.5987   94.2743   -0.1926 C.3     1  UNL1        0.2082
      2 S          62.4438   93.6240   -0.8951 S.3     1  UNL1       -0.0751
      3 C          62.2362   93.8490   -2.3635 C.2     1  UNL1        0.0470
      4 C          63.1834   94.7242   -3.1294 C.2     1  UNL1        0.0551
      5 C          62.9758   94.9492   -4.5979 C.3     1  UNL1        0.0512
      6 N          64.3383   95.3745   -2.4270 N.ar    1  UNL1       -0.2279
      7 C          64.5459   95.1495   -0.9585 C.ar    1  UNL1        0.2066
      8 N          65.7643   95.9176   -0.5396 N.ar    1  UNL1       -0.0545
      9 O          66.3097   96.6173   -1.7491 O.2     1  UNL1       -0.2950
     10 C          65.4284   96.2816   -2.9156 C.ar    1  UNL1        0.4470
     11 O          65.6060   96.7678   -4.3234 O.2     1  UNL1       -0.2203
     12 C          62.9776   93.5358    0.9558 C.ar    1  UNL1        0.0189
     13 C          63.7997   92.5742    1.7618 C.ar    1  UNL1       -0.0002
     14 C          63.1787   91.8357    2.9101 C.ar    1  UNL1        0.0065
     15 C          61.7354   92.0586    3.2526 C.ar    1  UNL1        0.0345
     16 BR         61.1144   91.3201    4.4010 Br      1  UNL1       -0.0490
     17 C          60.9133   93.0201    2.4467 C.ar    1  UNL1        0.0065
     18 C          61.5343   93.7587    1.2983 C.ar    1  UNL1       -0.0002
     19 O          64.5378   94.6680    0.9087 O.3     1  UNL1       -0.3379
     20 C          65.0815   96.1458    2.9753 C.3     1  UNL1        0.0347
     21 C          64.2008   95.8228    1.8048 C.3     1  UNL1        0.1440
@<TRIPOS>BOND
     1    20    21    1
     2    21    19    1
     3    19     1    1
     4     1    12    1
     5    12    13   ar
     6    13    14   ar
     7    14    15   ar
     8    15    16    1
     9    15    17   ar
    10    17    18   ar
    11     1     2    1
    12     2     3    1
    13     3     4    2
    14     4     5    1
    15     4     6    1
    16     6     7   ar
    17     7     8   ar
    18     8     9   ar
    19     9    10   ar
    20    10    11    2
    21     7     1    1
    22    18    12   ar
    23    10     6   ar
