@<TRIPOS>MOLECULE
*****
 39 41 0 0 0
SMALL
GASTEIGER

@<TRIPOS>ATOM
      1 C          62.4338   88.4690   11.5822 C.2     1  UNL1        0.2491
      2 O          63.0049   87.1607   12.0424 O.2     1  UNL1       -0.2699
      3 N          61.1134   88.5024   10.8711 N.am    1  UNL1       -0.2776
      4 C          64.2173   91.4573   13.4900 C.ar    1  UNL1        0.1723
      5 C          63.4682   90.1822   13.2391 C.ar    1  UNL1        0.0446
      6 C          63.1829   89.7442   11.8331 C.ar    1  UNL1        0.0568
      7 C          63.6467   90.5812   10.6781 C.ar    1  UNL1        0.0078
      8 C          64.3958   91.8563   10.9290 C.ar    1  UNL1        0.0402
      9 C          64.6811   92.2943   12.3350 C.ar    1  UNL1        0.1724
     10 O          65.4302   93.5695   12.5859 O.3     1  UNL1       -0.4684
     11 C          66.2073   94.2135   11.4763 C.3     1  UNL1        0.2526
     12 O          64.5025   91.8953   14.8960 O.3     1  UNL1       -0.4723
     13 C          65.9203   92.0562   15.3584 C.3     1  UNL1        0.2082
     14 C          67.0194   91.2851   14.6895 C.3     1  UNL1        0.0794
     15 C          68.0853   92.0105   13.9228 C.3     1  UNL1        0.1461
     16 C          68.9291   93.6372   15.7645 C.3     1  UNL1        0.1741
     17 O          69.2165   92.6714   14.6534 O.3     1  UNL1       -0.3510
     18 C          60.5423   89.8109   10.4109 C.3     1  UNL1        0.0757
     19 C          60.6001   90.1855    8.9597 C.3     1  UNL1        0.0215
     20 C          59.9133   90.7447   11.4021 C.3     1  UNL1        0.0215
     21 C          60.3643   87.2274   10.6202 C.3     1  UNL1        0.0964
     22 C          60.4570   86.5537    9.2832 C.3     1  UNL1        0.0530
     23 C          59.4027   86.5627    8.2163 C.3     1  UNL1        0.0717
     24 N          59.9144   85.7673    7.0521 N.3     1  UNL1       -0.2962
     25 C          61.2851   85.2666    7.3994 C.3     1  UNL1        0.0862
     26 C          61.6204   85.7527    8.7783 C.3     1  UNL1        0.0938
     27 H          59.9619   86.3590    6.2227 H       1  UNL1        0.1233
     28 N          62.8954   85.4847    9.5217 N.3     1  UNL1       -0.1832
     29 H          62.9613   86.1890   10.2566 H       1  UNL1        0.1484
     30 S          63.1161   84.1536   10.1767 S.O2    1  UNL1        0.0407
     31 O          62.0624   84.4791   11.1935 O.2     1  UNL1       -0.1575
     32 O          64.1698   83.8279    9.1601 O.2     1  UNL1       -0.1575
     33 C          63.3368   82.8223   10.8318 C.3     1  UNL1        0.1689
     34 C          63.2271   82.6924   12.3222 C.3     1  UNL1        0.0303
     35 C          62.1918   81.7878   12.9220 C.3     1  UNL1        0.0340
     36 C          62.0821   81.6579   14.4124 C.3     1  UNL1        0.1422
     37 O          63.0077   82.4326   15.3028 O.3     1  UNL1       -0.3538
     38 C          64.0431   83.3373   14.7031 C.3     1  UNL1        0.1422
     39 C          64.1528   83.4671   13.2127 C.3     1  UNL1        0.0340
@<TRIPOS>BOND
     1    16    17    1
     2    17    15    1
     3    15    14    1
     4    14    13    1
     5    13    12    1
     6    12     4    1
     7     4     5   ar
     8     5     6   ar
     9     6     1    1
    10     1     2    2
    11     1     3   am
    12     3    21    1
    13    22    21    1
    14    22    23    1
    15    23    24    1
    16    24    25    1
    17    25    26    1
    18    26    28    1
    19    28    30    1
    20    30    31    2
    21    30    32    2
    22    30    33    1
    23    33    34    1
    24    34    35    1
    25    35    36    1
    26    36    37    1
    27    37    38    1
    28    38    39    1
    29     3    18    1
    30    18    19    1
    31    18    20    1
    32     6     7   ar
    33     7     8   ar
    34     8     9   ar
    35     9    10    1
    36    10    11    1
    37     9     4   ar
    38    26    22    1
    39    39    34    1
    40    24    27    1
    41    28    29    1
@<TRIPOS>MOLECULE
*****
 39 41 0 0 0
SMALL
GASTEIGER

@<TRIPOS>ATOM
      1 C          62.3891   88.5841   11.4697 C.2     1  UNL1        0.2491
      2 O          62.9571   87.2762   11.9352 O.2     1  UNL1       -0.2699
      3 N          61.0359   88.6267   10.8240 N.am    1  UNL1       -0.2776
      4 C          64.3293   91.5781   13.2080 C.ar    1  UNL1        0.1723
      5 C          63.5441   90.3129   13.0278 C.ar    1  UNL1        0.0446
      6 C          63.1743   89.8494   11.6499 C.ar    1  UNL1        0.0568
      7 C          63.5898   90.6513   10.4523 C.ar    1  UNL1        0.0078
      8 C          64.3750   91.9166   10.6325 C.ar    1  UNL1        0.0402
      9 C          64.7447   92.3800   12.0104 C.ar    1  UNL1        0.1724
     10 O          65.5300   93.6453   12.1906 O.3     1  UNL1       -0.4684
     11 C          66.1866   94.2952   11.0088 C.3     1  UNL1        0.2526
     12 O          64.6991   92.0415   14.5859 O.3     1  UNL1       -0.4723
     13 C          64.7963   91.0521   15.7091 C.3     1  UNL1        0.2082
     14 C          63.5546   90.5960   16.4163 C.3     1  UNL1        0.0794
     15 C          63.1366   89.1571   16.3452 C.3     1  UNL1        0.1461
     16 C          62.6260   86.9053   17.5362 C.3     1  UNL1        0.1741
     17 O          63.1486   88.3105   17.5833 O.3     1  UNL1       -0.3510
     18 C          60.4679   89.9347   10.3585 C.3     1  UNL1        0.0757
     19 C          59.8971   90.9011   11.3536 C.3     1  UNL1        0.0215
     20 C          60.4707   90.2762    8.8979 C.3     1  UNL1        0.0215
     21 C          60.2507   87.3615   10.6438 C.3     1  UNL1        0.0964
     22 C          60.2716   86.6471    9.3250 C.3     1  UNL1        0.0530
     23 C          59.1572   86.6158    8.3215 C.3     1  UNL1        0.0717
     24 N          59.6076   85.7880    7.1544 N.3     1  UNL1       -0.2962
     25 C          61.0003   85.3078    7.4367 C.3     1  UNL1        0.0862
     26 C          61.4107   85.8387    8.7782 C.3     1  UNL1        0.0938
     27 H          59.6019   86.3540    6.3059 H       1  UNL1        0.1233
     28 N          62.7288   85.6028    9.4542 N.3     1  UNL1       -0.1832
     29 H          62.8210   86.3166   10.1768 H       1  UNL1        0.1484
     30 S          63.0096   84.2835   10.1103 S.O2    1  UNL1        0.0407
     31 O          64.0191   83.9692    9.0462 O.2     1  UNL1       -0.1575
     32 O          62.0002   84.5978   11.1744 O.2     1  UNL1       -0.1575
     33 C          63.2905   82.9642   10.7666 C.3     1  UNL1        0.1689
     34 C          63.2781   82.8529   12.2625 C.3     1  UNL1        0.0303
     35 C          64.2644   83.6324   13.0807 C.3     1  UNL1        0.0340
     36 C          64.2519   83.5210   14.5765 C.3     1  UNL1        0.1422
     37 O          63.2533   82.6303   15.2540 O.3     1  UNL1       -0.3538
     38 C          62.2669   81.8507   14.4358 C.3     1  UNL1        0.1422
     39 C          62.2793   81.9621   12.9400 C.3     1  UNL1        0.0340
@<TRIPOS>BOND
     1    16    17    1
     2    17    15    1
     3    15    14    1
     4    14    13    1
     5    13    12    1
     6    12     4    1
     7     4     5   ar
     8     5     6   ar
     9     6     1    1
    10     1     2    2
    11     1     3   am
    12     3    21    1
    13    22    21    1
    14    22    23    1
    15    23    24    1
    16    24    25    1
    17    25    26    1
    18    26    28    1
    19    28    30    1
    20    30    31    2
    21    30    32    2
    22    30    33    1
    23    33    34    1
    24    34    35    1
    25    35    36    1
    26    36    37    1
    27    37    38    1
    28    38    39    1
    29     3    18    1
    30    18    19    1
    31    18    20    1
    32     6     7   ar
    33     7     8   ar
    34     8     9   ar
    35     9    10    1
    36    10    11    1
    37     9     4   ar
    38    26    22    1
    39    39    34    1
    40    24    27    1
    41    28    29    1
@<TRIPOS>MOLECULE
*****
 39 41 0 0 0
SMALL
GASTEIGER

@<TRIPOS>ATOM
      1 C          62.3535   88.3560   11.9276 C.2     1  UNL1        0.2491
      2 O          62.7988   86.9828   12.3350 O.2     1  UNL1       -0.2699
      3 N          61.0851   88.5321   11.1465 N.am    1  UNL1       -0.2776
      4 C          64.4641   91.7021   11.6130 C.ar    1  UNL1        0.1723
      5 C          63.6411   90.5050   11.2393 C.ar    1  UNL1        0.0446
      6 C          63.1765   89.5531   12.3014 C.ar    1  UNL1        0.0568
      7 C          63.5348   89.7983   13.7371 C.ar    1  UNL1        0.0078
      8 C          64.3578   90.9953   14.1108 C.ar    1  UNL1        0.0402
      9 C          64.8224   91.9472   13.0488 C.ar    1  UNL1        0.1724
     10 O          65.6454   93.1443   13.4225 O.3     1  UNL1       -0.4684
     11 C          66.8997   92.9707   14.2267 C.3     1  UNL1        0.2526
     12 O          64.9287   92.6540   10.5509 O.3     1  UNL1       -0.4723
     13 C          66.3841   92.7294   10.1960 C.3     1  UNL1        0.2082
     14 C          67.0674   94.0620   10.1113 C.3     1  UNL1        0.0794
     15 C          66.4498   95.2642   10.7620 C.3     1  UNL1        0.1461
     16 C          67.2754   96.8557    8.8817 C.3     1  UNL1        0.1741
     17 O          66.8151   96.6415   10.2931 O.3     1  UNL1       -0.3510
     18 C          60.6397   89.9054   10.7391 C.3     1  UNL1        0.0757
     19 C          61.1272   90.5007    9.4515 C.3     1  UNL1        0.0215
     20 C          59.7069   90.6832   11.6193 C.3     1  UNL1        0.0215
     21 C          60.2621   87.3351   10.7727 C.3     1  UNL1        0.0964
     22 C          60.3861   86.7379    9.4023 C.3     1  UNL1        0.0530
     23 C          59.3581   86.8111    8.3123 C.3     1  UNL1        0.0717
     24 N          59.8965   86.0811    7.1176 N.3     1  UNL1       -0.2962
     25 C          61.2572   85.5568    7.4692 C.3     1  UNL1        0.0862
     26 C          61.5597   85.9628    8.8812 C.3     1  UNL1        0.0938
     27 H          59.9655   86.7188    6.3245 H       1  UNL1        0.1233
     28 N          62.8156   85.6487    9.6390 N.3     1  UNL1       -0.1832
     29 H          62.7880   86.2006   10.4963 H       1  UNL1        0.1484
     30 S          63.1140   84.2354   10.0433 S.O2    1  UNL1        0.0407
     31 O          64.1490   84.1444    8.9614 O.2     1  UNL1       -0.1575
     32 O          62.0789   84.3264   11.1252 O.2     1  UNL1       -0.1575
     33 C          63.4124   82.8221   10.4477 C.3     1  UNL1        0.1689
     34 C          63.3583   82.4285   11.8943 C.3     1  UNL1        0.0303
     35 C          62.5492   81.2387   12.3181 C.3     1  UNL1        0.0340
     36 C          62.4951   80.8452   13.7645 C.3     1  UNL1        0.1422
     37 O          63.2500   81.6415   14.7871 O.3     1  UNL1       -0.3538
     38 C          64.0592   82.8314   14.3634 C.3     1  UNL1        0.1422
     39 C          64.1133   83.2249   12.9169 C.3     1  UNL1        0.0340
@<TRIPOS>BOND
     1    16    17    1
     2    17    15    1
     3    15    14    1
     4    14    13    1
     5    13    12    1
     6    12     4    1
     7     4     5   ar
     8     5     6   ar
     9     6     1    1
    10     1     2    2
    11     1     3   am
    12     3    21    1
    13    22    21    1
    14    22    23    1
    15    23    24    1
    16    24    25    1
    17    25    26    1
    18    26    28    1
    19    28    30    1
    20    30    31    2
    21    30    32    2
    22    30    33    1
    23    33    34    1
    24    34    35    1
    25    35    36    1
    26    36    37    1
    27    37    38    1
    28    38    39    1
    29     3    18    1
    30    18    19    1
    31    18    20    1
    32     6     7   ar
    33     7     8   ar
    34     8     9   ar
    35     9    10    1
    36    10    11    1
    37     9     4   ar
    38    26    22    1
    39    39    34    1
    40    24    27    1
    41    28    29    1
@<TRIPOS>MOLECULE
*****
 39 41 0 0 0
SMALL
GASTEIGER

@<TRIPOS>ATOM
      1 C          62.7858   86.0212   11.1409 C.2     1  UNL1        0.2491
      2 O          63.1395   86.7718   12.3904 O.2     1  UNL1       -0.2699
      3 N          62.2704   86.7610    9.9421 N.am    1  UNL1       -0.2776
      4 C          62.3674   82.1720   12.0120 C.ar    1  UNL1        0.1723
      5 C          62.2059   83.6624   12.0628 C.ar    1  UNL1        0.0446
      6 C          62.9474   84.5308   11.0901 C.ar    1  UNL1        0.0568
      7 C          63.8505   83.9087   10.0667 C.ar    1  UNL1        0.0078
      8 C          64.0121   82.4183   10.0160 C.ar    1  UNL1        0.0402
      9 C          63.2706   81.5500   10.9886 C.ar    1  UNL1        0.1724
     10 O          63.4322   80.0595   10.9378 O.3     1  UNL1       -0.4684
     11 C          62.8406   79.2793    9.8015 C.3     1  UNL1        0.2526
     12 O          61.6259   81.3037   12.9847 O.3     1  UNL1       -0.4723
     13 C          61.7265   81.5715   14.4571 C.3     1  UNL1        0.2082
     14 C          62.7358   82.5537   14.9736 C.3     1  UNL1        0.0794
     15 C          62.2797   83.8326   15.6111 C.3     1  UNL1        0.1461
     16 C          63.7850   85.8840   16.1362 C.3     1  UNL1        0.1741
     17 O          62.8887   85.1380   15.1928 O.3     1  UNL1       -0.3510
     18 C          61.9167   86.0103    8.6925 C.3     1  UNL1        0.0757
     19 C          62.9972   85.3790    7.8655 C.3     1  UNL1        0.0215
     20 C          60.4824   85.8909    8.2699 C.3     1  UNL1        0.0215
     21 C          62.1088   88.2513    9.9928 C.3     1  UNL1        0.0964
     22 C          60.9604   88.8561   10.7449 C.3     1  UNL1        0.0530
     23 C          59.5584   88.3248   10.7898 C.3     1  UNL1        0.0717
     24 N          58.7440   89.2386   11.6568 N.3     1  UNL1       -0.2962
     25 C          59.6426   90.3347   12.1477 C.3     1  UNL1        0.0862
     26 C          61.0125   90.0982   11.5841 C.3     1  UNL1        0.0938
     27 H          58.3671   88.7189   12.4495 H       1  UNL1        0.1233
     28 N          62.2220   90.9538   11.8185 N.3     1  UNL1       -0.1832
     29 H          61.8885   91.8337   12.2121 H       1  UNL1        0.1484
     30 S          63.3221   90.4680   12.7149 S.O2    1  UNL1        0.0407
     31 O          64.3269   91.2094   11.8837 O.2     1  UNL1       -0.1575
     32 O          62.3174   89.7266   13.5462 O.2     1  UNL1       -0.1575
     33 C          64.4223   89.9821   13.6114 C.3     1  UNL1        0.1689
     34 C          65.0444   90.9146   14.6083 C.3     1  UNL1        0.0303
     35 C          66.4541   91.3887   14.4136 C.3     1  UNL1        0.0340
     36 C          67.0762   92.3211   15.4104 C.3     1  UNL1        0.1422
     37 O          66.2886   92.7794   16.6018 O.3     1  UNL1       -0.3538
     38 C          64.8788   92.3053   16.7965 C.3     1  UNL1        0.1422
     39 C          64.2567   91.3729   15.7997 C.3     1  UNL1        0.0340
@<TRIPOS>BOND
     1    16    17    1
     2    17    15    1
     3    15    14    1
     4    14    13    1
     5    13    12    1
     6    12     4    1
     7     4     5   ar
     8     5     6   ar
     9     6     1    1
    10     1     2    2
    11     1     3   am
    12     3    21    1
    13    22    21    1
    14    22    23    1
    15    23    24    1
    16    24    25    1
    17    25    26    1
    18    26    28    1
    19    28    30    1
    20    30    31    2
    21    30    32    2
    22    30    33    1
    23    33    34    1
    24    34    35    1
    25    35    36    1
    26    36    37    1
    27    37    38    1
    28    38    39    1
    29     3    18    1
    30    18    19    1
    31    18    20    1
    32     6     7   ar
    33     7     8   ar
    34     8     9   ar
    35     9    10    1
    36    10    11    1
    37     9     4   ar
    38    26    22    1
    39    39    34    1
    40    24    27    1
    41    28    29    1
@<TRIPOS>MOLECULE
*****
 39 41 0 0 0
SMALL
GASTEIGER

@<TRIPOS>ATOM
      1 C          63.0188   86.0227   11.8525 C.2     1  UNL1        0.2491
      2 O          63.0344   87.4102   12.4223 O.2     1  UNL1       -0.2699
      3 N          63.5558   84.8758   12.6563 N.am    1  UNL1       -0.2776
      4 C          60.5445   86.0410    8.7497 C.ar    1  UNL1        0.1723
      5 C          61.0971   86.2816   10.1232 C.ar    1  UNL1        0.0446
      6 C          62.4661   85.7822   10.4789 C.ar    1  UNL1        0.0568
      7 C          63.2824   85.0423    9.4610 C.ar    1  UNL1        0.0078
      8 C          62.7298   84.8018    8.0875 C.ar    1  UNL1        0.0402
      9 C          61.3608   85.3012    7.7318 C.ar    1  UNL1        0.1724
     10 O          60.8081   85.0606    6.3582 O.3     1  UNL1       -0.4684
     11 C          61.5877   84.2471    5.3680 C.3     1  UNL1        0.2526
     12 O          59.1755   86.5404    8.3940 O.3     1  UNL1       -0.4723
     13 C          59.0171   87.8477    7.6759 C.3     1  UNL1        0.2082
     14 C          59.9895   88.9625    7.9244 C.3     1  UNL1        0.0794
     15 C          60.0637   89.6053    9.2777 C.3     1  UNL1        0.1461
     16 C          61.4825   90.2235   11.3645 C.3     1  UNL1        0.1741
     17 O          61.3979   89.8739    9.9083 O.3     1  UNL1       -0.3510
     18 C          63.5403   83.4883   12.0864 C.3     1  UNL1        0.0757
     19 C          62.3374   82.6127   12.2771 C.3     1  UNL1        0.0215
     20 C          64.7276   82.9765   11.3259 C.3     1  UNL1        0.0215
     21 C          64.1085   85.1163   14.0298 C.3     1  UNL1        0.0964
     22 C          63.1871   85.4817   15.1556 C.3     1  UNL1        0.0530
     23 C          62.0056   84.6840   15.6223 C.3     1  UNL1        0.0717
     24 N          61.3736   85.4182   16.7675 N.3     1  UNL1       -0.2962
     25 C          62.1645   86.6697   17.0087 C.3     1  UNL1        0.0862
     26 C          63.2853   86.7090   16.0124 C.3     1  UNL1        0.0938
     27 H          61.3874   84.8336   17.6033 H       1  UNL1        0.1233
     28 N          64.3222   87.7863   15.8939 N.3     1  UNL1       -0.1832
     29 H          65.0956   87.3929   15.3578 H       1  UNL1        0.1484
     30 S          63.9728   89.0963   15.2522 S.O2    1  UNL1        0.0407
     31 O          63.3412   89.5553   16.5330 O.2     1  UNL1       -0.1575
     32 O          64.6043   88.6374   13.9714 O.2     1  UNL1       -0.1575
     33 C          63.6233   90.4063   14.6104 C.3     1  UNL1        0.1689
     34 C          64.7077   91.2851   14.0609 C.3     1  UNL1        0.0303
     35 C          64.6429   91.7555   12.6380 C.3     1  UNL1        0.0340
     36 C          65.7272   92.6343   12.0885 C.3     1  UNL1        0.1422
     37 O          66.8763   93.0426   12.9618 O.3     1  UNL1       -0.3538
     38 C          66.9412   92.5722   14.3847 C.3     1  UNL1        0.1422
     39 C          65.8569   91.6935   14.9342 C.3     1  UNL1        0.0340
@<TRIPOS>BOND
     1    16    17    1
     2    17    15    1
     3    15    14    1
     4    14    13    1
     5    13    12    1
     6    12     4    1
     7     4     5   ar
     8     5     6   ar
     9     6     1    1
    10     1     2    2
    11     1     3   am
    12     3    21    1
    13    22    21    1
    14    22    23    1
    15    23    24    1
    16    24    25    1
    17    25    26    1
    18    26    28    1
    19    28    30    1
    20    30    31    2
    21    30    32    2
    22    30    33    1
    23    33    34    1
    24    34    35    1
    25    35    36    1
    26    36    37    1
    27    37    38    1
    28    38    39    1
    29     3    18    1
    30    18    19    1
    31    18    20    1
    32     6     7   ar
    33     7     8   ar
    34     8     9   ar
    35     9    10    1
    36    10    11    1
    37     9     4   ar
    38    26    22    1
    39    39    34    1
    40    24    27    1
    41    28    29    1
@<TRIPOS>MOLECULE
*****
 39 41 0 0 0
SMALL
GASTEIGER

@<TRIPOS>ATOM
      1 C          62.8157   87.3420   12.2419 C.2     1  UNL1        0.2491
      2 O          63.2232   86.0816   12.9457 O.2     1  UNL1       -0.2699
      3 N          63.3716   88.6624   12.6863 N.am    1  UNL1       -0.2776
      4 C          61.2347   86.4339    8.7169 C.ar    1  UNL1        0.1723
      5 C          62.1980   86.4939    9.8651 C.ar    1  UNL1        0.0446
      6 C          61.8523   87.2819   11.0937 C.ar    1  UNL1        0.0568
      7 C          60.5433   88.0099   11.1741 C.ar    1  UNL1        0.0078
      8 C          59.5800   87.9499   10.0259 C.ar    1  UNL1        0.0402
      9 C          59.9257   87.1618    8.7973 C.ar    1  UNL1        0.1724
     10 O          58.9623   87.1018    7.6491 O.3     1  UNL1       -0.4684
     11 C          58.6500   88.3428    6.8664 C.3     1  UNL1        0.2526
     12 O          61.5804   85.6459    7.4882 O.3     1  UNL1       -0.4723
     13 C          62.7000   84.6484    7.5273 C.3     1  UNL1        0.2082
     14 C          63.5998   84.5775    8.7254 C.3     1  UNL1        0.0794
     15 C          63.5455   83.3857    9.6347 C.3     1  UNL1        0.1461
     16 C          64.5261   82.5927   11.9062 C.3     1  UNL1        0.1741
     17 O          64.7290   83.0394   10.4887 O.3     1  UNL1       -0.3510
     18 C          62.9641   89.9228   11.9824 C.3     1  UNL1        0.0757
     19 C          61.9363   90.8262   12.5968 C.3     1  UNL1        0.0215
     20 C          63.5844   90.2798   10.6642 C.3     1  UNL1        0.0215
     21 C          64.3349   88.7225   13.8344 C.3     1  UNL1        0.0964
     22 C          64.2448   89.8396   14.8314 C.3     1  UNL1        0.0530
     23 C          63.2925   89.9145   15.9879 C.3     1  UNL1        0.0717
     24 N          63.5503   91.1991   16.7182 N.3     1  UNL1       -0.2962
     25 C          64.6620   91.9181   16.0131 C.3     1  UNL1        0.0862
     26 C          65.0912   91.0779   14.8470 C.3     1  UNL1        0.0938
     27 H          63.8220   91.0012   17.6813 H       1  UNL1        0.1233
     28 N          66.1763   91.4165   13.8683 N.3     1  UNL1       -0.1832
     29 H          66.0922   90.7564   13.0953 H       1  UNL1        0.1484
     30 S          66.2388   92.7871   13.2623 S.O2    1  UNL1        0.0407
     31 O          64.8641   92.5979   12.6927 O.2     1  UNL1       -0.1575
     32 O          67.6135   92.9764   13.8319 O.2     1  UNL1       -0.1575
     33 C          66.3013   94.1579   12.6563 C.3     1  UNL1        0.1689
     34 C          66.7082   94.3260   11.2222 C.3     1  UNL1        0.0303
     35 C          67.3560   93.1896   10.4882 C.3     1  UNL1        0.0340
     36 C          67.7629   93.3577    9.0543 C.3     1  UNL1        0.1422
     37 O          67.5219   94.6622    8.3544 O.3     1  UNL1       -0.3538
     38 C          66.8740   95.7988    9.0883 C.3     1  UNL1        0.1422
     39 C          66.4672   95.6306   10.5223 C.3     1  UNL1        0.0340
@<TRIPOS>BOND
     1    16    17    1
     2    17    15    1
     3    15    14    1
     4    14    13    1
     5    13    12    1
     6    12     4    1
     7     4     5   ar
     8     5     6   ar
     9     6     1    1
    10     1     2    2
    11     1     3   am
    12     3    21    1
    13    22    21    1
    14    22    23    1
    15    23    24    1
    16    24    25    1
    17    25    26    1
    18    26    28    1
    19    28    30    1
    20    30    31    2
    21    30    32    2
    22    30    33    1
    23    33    34    1
    24    34    35    1
    25    35    36    1
    26    36    37    1
    27    37    38    1
    28    38    39    1
    29     3    18    1
    30    18    19    1
    31    18    20    1
    32     6     7   ar
    33     7     8   ar
    34     8     9   ar
    35     9    10    1
    36    10    11    1
    37     9     4   ar
    38    26    22    1
    39    39    34    1
    40    24    27    1
    41    28    29    1
@<TRIPOS>MOLECULE
*****
 39 41 0 0 0
SMALL
GASTEIGER

@<TRIPOS>ATOM
      1 C          62.2051   89.8160   10.2412 C.2     1  UNL1        0.2491
      2 O          63.0342   89.5287    9.0247 O.2     1  UNL1       -0.2699
      3 N          60.7085   89.7578   10.1596 N.am    1  UNL1       -0.2776
      4 C          64.4257   91.7142   12.9274 C.ar    1  UNL1        0.1723
      5 C          63.7582   91.3687   11.6293 C.ar    1  UNL1        0.0446
      6 C          62.8726   90.1614   11.5394 C.ar    1  UNL1        0.0568
      7 C          62.6545   89.2995   12.7475 C.ar    1  UNL1        0.0078
      8 C          63.3220   89.6450   14.0455 C.ar    1  UNL1        0.0402
      9 C          64.2076   90.8523   14.1355 C.ar    1  UNL1        0.1724
     10 O          64.8751   91.1977   15.4337 O.3     1  UNL1       -0.4684
     11 C          64.0473   91.5882   16.6221 C.3     1  UNL1        0.2526
     12 O          65.3113   92.9215   13.0174 O.3     1  UNL1       -0.4723
     13 C          66.3553   93.1657   11.9684 C.3     1  UNL1        0.2082
     14 C          66.2777   94.3888   11.1035 C.3     1  UNL1        0.0794
     15 C          67.0792   94.4643    9.8377 C.3     1  UNL1        0.1461
     16 C          68.7851   92.6004    9.2331 C.3     1  UNL1        0.1741
     17 O          68.4889   93.9525    9.8110 O.3     1  UNL1       -0.3510
     18 C          59.8793   90.0451   11.3762 C.3     1  UNL1        0.0757
     19 C          59.4292   91.4469   11.6632 C.3     1  UNL1        0.0215
     20 C          59.5003   88.9305   12.3058 C.3     1  UNL1        0.0215
     21 C          60.0409   89.4124    8.8615 C.3     1  UNL1        0.0964
     22 C          59.9255   87.9788    8.4357 C.3     1  UNL1        0.0530
     23 C          58.9454   87.4305    7.4413 C.3     1  UNL1        0.0717
     24 N          59.1841   85.9546    7.3205 N.3     1  UNL1       -0.2962
     25 C          60.3118   85.5906    8.2402 C.3     1  UNL1        0.0862
     26 C          60.7700   86.8416    8.9294 C.3     1  UNL1        0.0938
     27 H          59.4326   85.7217    6.3591 H       1  UNL1        0.1233
     28 N          61.8781   86.9385    9.9357 N.3     1  UNL1       -0.1832
     29 H          61.6433   87.7111   10.5589 H       1  UNL1        0.1484
     30 S          62.2042   85.7625   10.8079 S.O2    1  UNL1        0.0407
     31 O          61.2430   86.2646   11.8442 O.2     1  UNL1       -0.1575
     32 O          63.1654   85.2604    9.7716 O.2     1  UNL1       -0.1575
     33 C          62.5303   84.5865   11.6801 C.3     1  UNL1        0.1689
     34 C          62.9250   84.8008   13.1113 C.3     1  UNL1        0.0303
     35 C          63.9075   85.8776   13.4652 C.3     1  UNL1        0.0340
     36 C          64.3021   86.0919   14.8964 C.3     1  UNL1        0.1422
     37 O          63.7143   85.2294   15.9737 O.3     1  UNL1       -0.3538
     38 C          62.7318   84.1526   15.6198 C.3     1  UNL1        0.1422
     39 C          62.3372   83.9383   14.1886 C.3     1  UNL1        0.0340
@<TRIPOS>BOND
     1    16    17    1
     2    17    15    1
     3    15    14    1
     4    14    13    1
     5    13    12    1
     6    12     4    1
     7     4     5   ar
     8     5     6   ar
     9     6     1    1
    10     1     2    2
    11     1     3   am
    12     3    21    1
    13    22    21    1
    14    22    23    1
    15    23    24    1
    16    24    25    1
    17    25    26    1
    18    26    28    1
    19    28    30    1
    20    30    31    2
    21    30    32    2
    22    30    33    1
    23    33    34    1
    24    34    35    1
    25    35    36    1
    26    36    37    1
    27    37    38    1
    28    38    39    1
    29     3    18    1
    30    18    19    1
    31    18    20    1
    32     6     7   ar
    33     7     8   ar
    34     8     9   ar
    35     9    10    1
    36    10    11    1
    37     9     4   ar
    38    26    22    1
    39    39    34    1
    40    24    27    1
    41    28    29    1
@<TRIPOS>MOLECULE
*****
 39 41 0 0 0
SMALL
GASTEIGER

@<TRIPOS>ATOM
      1 C          63.1652   85.9893   12.0524 C.2     1  UNL1        0.2491
      2 O          63.2985   87.3736   12.6143 O.2     1  UNL1       -0.2699
      3 N          63.6401   84.8086   12.8465 N.am    1  UNL1       -0.2776
      4 C          60.6011   86.1615    9.0283 C.ar    1  UNL1        0.1723
      5 C          61.2093   86.3653   10.3841 C.ar    1  UNL1        0.0446
      6 C          62.5570   85.7855   10.6965 C.ar    1  UNL1        0.0568
      7 C          63.2965   85.0018    9.6529 C.ar    1  UNL1        0.0078
      8 C          62.6882   84.7981    8.2970 C.ar    1  UNL1        0.0402
      9 C          61.3406   85.3779    7.9847 C.ar    1  UNL1        0.1724
     10 O          60.7323   85.1741    6.6287 O.3     1  UNL1       -0.4684
     11 C          61.3966   84.2648    5.6377 C.3     1  UNL1        0.2526
     12 O          59.2534   86.7413    8.7159 O.3     1  UNL1       -0.4723
     13 C          59.0545   87.5458    7.4657 C.3     1  UNL1        0.2082
     14 C          59.4447   88.9939    7.4356 C.3     1  UNL1        0.0794
     15 C          59.4776   89.7348    6.1317 C.3     1  UNL1        0.1461
     16 C          58.6578   91.7954    4.7782 C.3     1  UNL1        0.1741
     17 O          58.4084   90.7370    5.8115 O.3     1  UNL1       -0.3510
     18 C          63.5069   83.4242   12.2846 C.3     1  UNL1        0.0757
     19 C          62.2563   82.6328   12.5289 C.3     1  UNL1        0.0215
     20 C          64.6242   82.8312   11.4785 C.3     1  UNL1        0.0215
     21 C          64.2483   85.0124   14.2024 C.3     1  UNL1        0.0964
     22 C          63.4119   85.5470   15.3270 C.3     1  UNL1        0.0530
     23 C          62.3135   84.8115   16.0357 C.3     1  UNL1        0.0717
     24 N          61.7498   85.7210   17.0870 N.3     1  UNL1       -0.2962
     25 C          62.4998   87.0186   17.0279 C.3     1  UNL1        0.0862
     26 C          63.5271   86.9111   15.9402 C.3     1  UNL1        0.0938
     27 H          61.8628   85.2974   18.0080 H       1  UNL1        0.1233
     28 N          64.4989   87.9801   15.5365 N.3     1  UNL1       -0.1832
     29 H          65.0741   87.5886   14.7907 H       1  UNL1        0.1484
     30 S          63.9954   89.3047   15.0451 S.O2    1  UNL1        0.0407
     31 O          65.3016   89.5422   14.3468 O.2     1  UNL1       -0.1575
     32 O          62.6892   89.0674   15.7433 O.2     1  UNL1       -0.1575
     33 C          63.4919   90.6295   14.5536 C.3     1  UNL1        0.1689
     34 C          63.6599   91.0077   13.1117 C.3     1  UNL1        0.0303
     35 C          62.7200   90.4609   12.0785 C.3     1  UNL1        0.0340
     36 C          62.8880   90.8390   10.6367 C.3     1  UNL1        0.1422
     37 O          63.9959   91.7639   10.2281 O.3     1  UNL1       -0.3538
     38 C          64.9359   92.3107   11.2614 C.3     1  UNL1        0.1422
     39 C          64.7679   91.9326   12.7031 C.3     1  UNL1        0.0340
@<TRIPOS>BOND
     1    16    17    1
     2    17    15    1
     3    15    14    1
     4    14    13    1
     5    13    12    1
     6    12     4    1
     7     4     5   ar
     8     5     6   ar
     9     6     1    1
    10     1     2    2
    11     1     3   am
    12     3    21    1
    13    22    21    1
    14    22    23    1
    15    23    24    1
    16    24    25    1
    17    25    26    1
    18    26    28    1
    19    28    30    1
    20    30    31    2
    21    30    32    2
    22    30    33    1
    23    33    34    1
    24    34    35    1
    25    35    36    1
    26    36    37    1
    27    37    38    1
    28    38    39    1
    29     3    18    1
    30    18    19    1
    31    18    20    1
    32     6     7   ar
    33     7     8   ar
    34     8     9   ar
    35     9    10    1
    36    10    11    1
    37     9     4   ar
    38    26    22    1
    39    39    34    1
    40    24    27    1
    41    28    29    1
@<TRIPOS>MOLECULE
*****
 39 41 0 0 0
SMALL
GASTEIGER

@<TRIPOS>ATOM
      1 C          62.2427   89.7797   10.3664 C.2     1  UNL1        0.2491
      2 O          63.1274   89.5276    9.1816 O.2     1  UNL1       -0.2699
      3 N          60.7514   89.7289   10.2132 N.am    1  UNL1       -0.2776
      4 C          64.3288   91.5932   13.2140 C.ar    1  UNL1        0.1723
      5 C          63.7222   91.2903   11.8761 C.ar    1  UNL1        0.0446
      6 C          62.8493   90.0826   11.7044 C.ar    1  UNL1        0.0568
      7 C          62.5829   89.1779   12.8708 C.ar    1  UNL1        0.0078
      8 C          63.1895   89.4808   14.2088 C.ar    1  UNL1        0.0402
      9 C          64.0625   90.6885   14.3804 C.ar    1  UNL1        0.1724
     10 O          64.6691   90.9914   15.7185 O.3     1  UNL1       -0.4684
     11 C          64.1211   92.1098   16.5544 C.3     1  UNL1        0.2526
     12 O          65.2017   92.8009   13.3856 O.3     1  UNL1       -0.4723
     13 C          66.6285   92.7668   12.9239 C.3     1  UNL1        0.2082
     14 C          67.6113   91.8515   13.5920 C.3     1  UNL1        0.0794
     15 C          67.7149   91.8258   15.0883 C.3     1  UNL1        0.1461
     16 C          68.9454   93.9306   15.9860 C.3     1  UNL1        0.1741
     17 O          67.6959   93.1098   15.8635 O.3     1  UNL1       -0.3510
     18 C          59.8667   89.9810   11.3980 C.3     1  UNL1        0.0757
     19 C          59.4601   88.8427   12.2862 C.3     1  UNL1        0.0215
     20 C          59.3886   91.3715   11.6946 C.3     1  UNL1        0.0215
     21 C          60.1448   89.4260    8.8752 C.3     1  UNL1        0.0964
     22 C          59.9824   88.0028    8.4302 C.3     1  UNL1        0.0530
     23 C          58.9674   87.4962    7.4488 C.3     1  UNL1        0.0717
     24 N          59.1641   86.0165    7.3005 N.3     1  UNL1       -0.2962
     25 C          60.3007   85.6086    8.1903 C.3     1  UNL1        0.0862
     26 C          60.8064   86.8362    8.8885 C.3     1  UNL1        0.0938
     27 H          59.3862   85.7923    6.3306 H       1  UNL1        0.1233
     28 N          61.9376   86.8880    9.8723 N.3     1  UNL1       -0.1832
     29 H          61.7441   87.6662   10.5027 H       1  UNL1        0.1484
     30 S          62.2376   85.6973   10.7336 S.O2    1  UNL1        0.0407
     31 O          63.2005   85.1923    9.7002 O.2     1  UNL1       -0.1575
     32 O          61.2748   86.2022   11.7671 O.2     1  UNL1       -0.1575
     33 C          62.5377   84.5065   11.5951 C.3     1  UNL1        0.1689
     34 C          62.9194   84.6982   13.0331 C.3     1  UNL1        0.0303
     35 C          62.3289   83.8128   14.0902 C.3     1  UNL1        0.0340
     36 C          62.7106   84.0045   15.5281 C.3     1  UNL1        0.1422
     37 O          63.6826   85.0815   15.9089 O.3     1  UNL1       -0.3538
     38 C          64.2731   85.9669   14.8518 C.3     1  UNL1        0.1422
     39 C          63.8914   85.7752   13.4139 C.3     1  UNL1        0.0340
@<TRIPOS>BOND
     1    16    17    1
     2    17    15    1
     3    15    14    1
     4    14    13    1
     5    13    12    1
     6    12     4    1
     7     4     5   ar
     8     5     6   ar
     9     6     1    1
    10     1     2    2
    11     1     3   am
    12     3    21    1
    13    22    21    1
    14    22    23    1
    15    23    24    1
    16    24    25    1
    17    25    26    1
    18    26    28    1
    19    28    30    1
    20    30    31    2
    21    30    32    2
    22    30    33    1
    23    33    34    1
    24    34    35    1
    25    35    36    1
    26    36    37    1
    27    37    38    1
    28    38    39    1
    29     3    18    1
    30    18    19    1
    31    18    20    1
    32     6     7   ar
    33     7     8   ar
    34     8     9   ar
    35     9    10    1
    36    10    11    1
    37     9     4   ar
    38    26    22    1
    39    39    34    1
    40    24    27    1
    41    28    29    1
