@<TRIPOS>MOLECULE
*****
 32 35 0 0 0
SMALL
GASTEIGER

@<TRIPOS>ATOM
      1 C          57.5564   93.8621   -0.7361 C.3     1  UNL1        0.0521
      2 C          58.9019   93.5646   -0.1435 C.ar    1  UNL1        0.0612
      3 C          59.0042   93.0303    1.2543 C.ar    1  UNL1        0.0195
      4 C          60.3497   92.7328    1.8470 C.ar    1  UNL1        0.0603
      5 C          61.5928   92.9696    1.0417 C.ar    1  UNL1        0.0555
      6 C          63.0458   92.7711    1.3569 C.ar    1  UNL1        0.0824
      7 C          63.6050   92.2522    2.6484 C.3     1  UNL1        0.0540
      8 N          63.8416   93.1827    0.1538 N.ar    1  UNL1       -0.1681
      9 N          62.8803   93.6356   -0.9050 N.ar    1  UNL1       -0.2125
     10 C          61.4905   93.5038   -0.3562 C.ar    1  UNL1        0.1646
     11 N          60.1450   93.8013   -0.9488 N.ar    1  UNL1       -0.2309
     12 C          63.2448   94.1328   -2.2724 C.ar    1  UNL1        0.0844
     13 C          64.2456   95.2396   -2.4259 C.ar    1  UNL1        0.0192
     14 C          64.6100   95.7368   -3.7933 C.ar    1  UNL1        0.0015
     15 C          63.9738   95.1273   -5.0072 C.ar    1  UNL1        0.0001
     16 C          62.9731   94.0205   -4.8538 C.ar    1  UNL1        0.0015
     17 C          62.6086   93.5233   -3.4863 C.ar    1  UNL1        0.0192
     18 C          60.4519   92.1986    3.2449 C.2     1  UNL1        0.2647
     19 O          61.7990   91.9754    3.8658 O.2     1  UNL1       -0.2684
     20 N          59.2072   91.8875    4.0219 N.am    1  UNL1       -0.2023
     21 H          58.3230   92.0340    3.6143 H       1  UNL1        0.1776
     22 N          59.3094   91.3532    5.4198 N.2     1  UNL1       -0.1773
     23 C          59.6393   89.9079    5.6481 C.2     1  UNL1        0.1176
     24 C          59.7415   89.3737    7.0460 C.ar    1  UNL1        0.0211
     25 C          59.3145   87.9671    7.3445 C.ar    1  UNL1        0.0079
     26 C          59.4168   87.4329    8.7425 C.ar    1  UNL1        0.0753
     27 C          59.9461   88.3053    9.8418 C.ar    1  UNL1        0.2901
     28 C          60.3731   89.7119    9.5433 C.ar    1  UNL1        0.0753
     29 C          60.2709   90.2461    8.1454 C.ar    1  UNL1        0.0079
     30 N          60.0483   87.7712   11.2397 N.pl3   1  UNL1        0.0809
     31 O          59.2649   88.4121   12.3468 O.2     1  UNL1        0.0415
     32 O          60.9340   86.5960   11.5307 O.co2   1  UNL1       -0.5760
@<TRIPOS>UNITY_ATOM_ATTR
30 1
charge 1
32 1
charge -1
@<TRIPOS>BOND
     1     1     2    1
     2     2     3   ar
     3     3     4   ar
     4     4    18    1
     5    18    19    2
     6    18    20   am
     7    20    22    1
     8    22    23    2
     9    23    24    1
    10    24    25   ar
    11    25    26   ar
    12    26    27   ar
    13    27    30    1
    14    30    31    2
    15    30    32    1
    16    27    28   ar
    17    28    29   ar
    18     4     5   ar
    19     5     6   ar
    20     6     7    1
    21     6     8   ar
    22     8     9   ar
    23     9    12    1
    24    12    13   ar
    25    13    14   ar
    26    14    15   ar
    27    15    16   ar
    28    16    17   ar
    29     9    10   ar
    30    10    11   ar
    31    11     2   ar
    32    29    24   ar
    33    10     5   ar
    34    17    12   ar
    35    20    21    1
@<TRIPOS>MOLECULE
*****
 32 35 0 0 0
SMALL
GASTEIGER

@<TRIPOS>ATOM
      1 C          59.5685   89.6570   12.6194 C.3     1  UNL1        0.0521
      2 C          60.0358   88.8049   11.4767 C.ar    1  UNL1        0.0612
      3 C          59.7481   89.2208   10.0645 C.ar    1  UNL1        0.0195
      4 C          60.2153   88.3688    8.9218 C.ar    1  UNL1        0.0603
      5 C          60.9702   87.1009    9.1913 C.ar    1  UNL1        0.0555
      6 C          61.5524   86.0654    8.2755 C.ar    1  UNL1        0.0824
      7 C          61.4968   86.0827    6.7766 C.3     1  UNL1        0.0540
      8 N          62.1998   85.0095    9.1216 N.ar    1  UNL1       -0.1681
      9 N          62.0178   85.3925   10.5604 N.ar    1  UNL1       -0.2125
     10 C          61.2579   86.6851   10.6035 C.ar    1  UNL1        0.1646
     11 N          60.7906   87.5371   11.7462 N.ar    1  UNL1       -0.2309
     12 C          62.5094   84.6188   11.7478 C.ar    1  UNL1        0.0844
     13 C          62.4328   83.1208   11.7508 C.ar    1  UNL1        0.0192
     14 C          62.9244   82.3472   12.9382 C.ar    1  UNL1        0.0015
     15 C          63.4926   83.0715   14.1224 C.ar    1  UNL1        0.0001
     16 C          63.5692   84.5696   14.1193 C.ar    1  UNL1        0.0015
     17 C          63.0776   85.3432   12.9320 C.ar    1  UNL1        0.0192
     18 C          59.9277   88.7846    7.5096 C.2     1  UNL1        0.2647
     19 O          59.0472   87.9349    6.6421 O.2     1  UNL1       -0.2684
     20 N          60.5205   90.0503    6.9649 N.am    1  UNL1       -0.2023
     21 H          61.0984   90.6080    7.5343 H       1  UNL1        0.1776
     22 N          60.2328   90.4662    5.5526 N.2     1  UNL1       -0.1773
     23 C          61.0901   91.5009    4.8861 C.2     1  UNL1        0.1176
     24 C          60.8024   91.9167    3.4739 C.ar    1  UNL1        0.0211
     25 C          59.4288   92.3853    3.0951 C.ar    1  UNL1        0.0079
     26 C          59.1411   92.8012    1.6829 C.ar    1  UNL1        0.0753
     27 C          60.2270   92.7484    0.6495 C.ar    1  UNL1        0.2901
     28 C          61.6007   92.2798    1.0283 C.ar    1  UNL1        0.0753
     29 C          61.8884   91.8640    2.4405 C.ar    1  UNL1        0.0079
     30 N          59.9393   93.1643   -0.7626 N.pl3   1  UNL1        0.0809
     31 O          60.7051   94.2956   -1.3822 O.2     1  UNL1        0.0415
     32 O          58.8859   92.4488   -1.5554 O.co2   1  UNL1       -0.5760
@<TRIPOS>UNITY_ATOM_ATTR
30 1
charge 1
32 1
charge -1
@<TRIPOS>BOND
     1     1     2    1
     2     2     3   ar
     3     3     4   ar
     4     4    18    1
     5    18    19    2
     6    18    20   am
     7    20    22    1
     8    22    23    2
     9    23    24    1
    10    24    25   ar
    11    25    26   ar
    12    26    27   ar
    13    27    30    1
    14    30    31    2
    15    30    32    1
    16    27    28   ar
    17    28    29   ar
    18     4     5   ar
    19     5     6   ar
    20     6     7    1
    21     6     8   ar
    22     8     9   ar
    23     9    12    1
    24    12    13   ar
    25    13    14   ar
    26    14    15   ar
    27    15    16   ar
    28    16    17   ar
    29     9    10   ar
    30    10    11   ar
    31    11     2   ar
    32    29    24   ar
    33    10     5   ar
    34    17    12   ar
    35    20    21    1
@<TRIPOS>MOLECULE
*****
 32 35 0 0 0
SMALL
GASTEIGER

@<TRIPOS>ATOM
      1 C          56.1253   92.0663   -1.7009 C.3     1  UNL1        0.0521
      2 C          56.3163   93.1097   -2.7615 C.ar    1  UNL1        0.0612
      3 C          57.6441   93.2499   -3.4451 C.ar    1  UNL1        0.0195
      4 C          57.8351   94.2934   -4.5057 C.ar    1  UNL1        0.0603
      5 C          56.6984   95.1966   -4.8826 C.ar    1  UNL1        0.0555
      6 C          56.5894   96.3088   -5.8831 C.ar    1  UNL1        0.0824
      7 C          57.6834   96.7894   -6.7897 C.3     1  UNL1        0.0540
      8 N          55.1942   96.8560   -5.8178 N.ar    1  UNL1       -0.1681
      9 N          54.4410   96.0819   -4.7769 N.ar    1  UNL1       -0.2125
     10 C          55.3707   95.0564   -4.1989 C.ar    1  UNL1        0.1646
     11 N          55.1796   94.0129   -3.1384 N.ar    1  UNL1       -0.2309
     12 C          53.0095   96.2959   -4.3831 C.ar    1  UNL1        0.0844
     13 C          51.9314   96.2594   -5.4254 C.ar    1  UNL1        0.0192
     14 C          50.5000   96.4733   -5.0316 C.ar    1  UNL1        0.0015
     15 C          50.1466   96.7237   -3.5955 C.ar    1  UNL1        0.0001
     16 C          51.2247   96.7602   -2.5531 C.ar    1  UNL1        0.0015
     17 C          52.6561   96.5463   -2.9470 C.ar    1  UNL1        0.0192
     18 C          59.1629   94.4336   -5.1894 C.2     1  UNL1        0.2647
     19 O          59.3226   93.9944   -6.6147 O.2     1  UNL1       -0.2684
     20 N          60.3309   95.0129   -4.4477 N.am    1  UNL1       -0.2023
     21 H          60.2260   95.3012   -3.5122 H       1  UNL1        0.1776
     22 N          61.6587   95.1531   -5.1314 N.2     1  UNL1       -0.1773
     23 C          62.9162   94.7575   -4.4158 C.2     1  UNL1        0.1176
     24 C          64.2439   94.8977   -5.0995 C.ar    1  UNL1        0.0211
     25 C          64.9252   96.2331   -5.1480 C.ar    1  UNL1        0.0079
     26 C          66.2530   96.3733   -5.8317 C.ar    1  UNL1        0.0753
     27 C          66.8994   95.1780   -6.4669 C.ar    1  UNL1        0.2901
     28 C          66.2181   93.8426   -6.4184 C.ar    1  UNL1        0.0753
     29 C          64.8904   93.7024   -5.7347 C.ar    1  UNL1        0.0079
     30 N          68.2271   95.3182   -7.1506 N.pl3   1  UNL1        0.0809
     31 O          68.9930   94.0950   -7.5597 O.2     1  UNL1        0.0415
     32 O          68.7891   96.6816   -7.4252 O.co2   1  UNL1       -0.5760
@<TRIPOS>UNITY_ATOM_ATTR
30 1
charge 1
32 1
charge -1
@<TRIPOS>BOND
     1     1     2    1
     2     2     3   ar
     3     3     4   ar
     4     4    18    1
     5    18    19    2
     6    18    20   am
     7    20    22    1
     8    22    23    2
     9    23    24    1
    10    24    25   ar
    11    25    26   ar
    12    26    27   ar
    13    27    30    1
    14    30    31    2
    15    30    32    1
    16    27    28   ar
    17    28    29   ar
    18     4     5   ar
    19     5     6   ar
    20     6     7    1
    21     6     8   ar
    22     8     9   ar
    23     9    12    1
    24    12    13   ar
    25    13    14   ar
    26    14    15   ar
    27    15    16   ar
    28    16    17   ar
    29     9    10   ar
    30    10    11   ar
    31    11     2   ar
    32    29    24   ar
    33    10     5   ar
    34    17    12   ar
    35    20    21    1
@<TRIPOS>MOLECULE
*****
 32 35 0 0 0
SMALL
GASTEIGER

@<TRIPOS>ATOM
      1 C          63.8919   89.0170   14.4933 C.3     1  UNL1        0.0521
      2 C          63.3303   88.4177   13.2381 C.ar    1  UNL1        0.0612
      3 C          62.9324   89.3051   12.0961 C.ar    1  UNL1        0.0195
      4 C          62.3708   88.7057   10.8409 C.ar    1  UNL1        0.0603
      5 C          62.2070   87.2190   10.7278 C.ar    1  UNL1        0.0555
      6 C          61.6858   86.3478    9.6236 C.ar    1  UNL1        0.0824
      7 C          61.1780   86.8196    8.2934 C.3     1  UNL1        0.0540
      8 N          61.7615   84.9219   10.0833 N.ar    1  UNL1       -0.1681
      9 N          62.3295   84.9119   11.4715 N.ar    1  UNL1       -0.2125
     10 C          62.6049   86.3317   11.8698 C.ar    1  UNL1        0.1646
     11 N          63.1665   86.9310   13.1250 N.ar    1  UNL1       -0.2309
     12 C          62.5785   83.6958   12.3135 C.ar    1  UNL1        0.0844
     13 C          62.7040   82.3484   11.6665 C.ar    1  UNL1        0.0192
     14 C          62.9529   81.1323   12.5086 C.ar    1  UNL1        0.0015
     15 C          63.0764   81.2636   13.9977 C.ar    1  UNL1        0.0001
     16 C          62.9509   82.6111   14.6448 C.ar    1  UNL1        0.0015
     17 C          62.7020   83.8271   13.8027 C.ar    1  UNL1        0.0192
     18 C          61.9730   89.5932    9.6989 C.2     1  UNL1        0.2647
     19 O          62.8358   90.7602    9.3201 O.2     1  UNL1       -0.2684
     20 N          60.7123   89.3136    8.9357 N.am    1  UNL1       -0.2023
     21 H          60.1460   88.5476    9.1843 H       1  UNL1        0.1776
     22 N          60.3145   90.2010    7.7936 N.2     1  UNL1       -0.1773
     23 C          60.9110   89.9866    6.4341 C.2     1  UNL1        0.1176
     24 C          60.5131   90.8741    5.2922 C.ar    1  UNL1        0.0211
     25 C          61.5362   91.2990    4.2809 C.ar    1  UNL1        0.0079
     26 C          61.1383   92.1865    3.1389 C.ar    1  UNL1        0.0753
     27 C          59.7174   92.6490    3.0082 C.ar    1  UNL1        0.2901
     28 C          58.6943   92.2240    4.0195 C.ar    1  UNL1        0.0753
     29 C          59.0922   91.3366    5.1615 C.ar    1  UNL1        0.0079
     30 N          59.3195   93.5364    1.8662 N.pl3   1  UNL1        0.0809
     31 O          59.5959   95.0094    1.9294 O.2     1  UNL1        0.0415
     32 O          58.6452   92.9509    0.6610 O.co2   1  UNL1       -0.5760
@<TRIPOS>UNITY_ATOM_ATTR
30 1
charge 1
32 1
charge -1
@<TRIPOS>BOND
     1     1     2    1
     2     2     3   ar
     3     3     4   ar
     4     4    18    1
     5    18    19    2
     6    18    20   am
     7    20    22    1
     8    22    23    2
     9    23    24    1
    10    24    25   ar
    11    25    26   ar
    12    26    27   ar
    13    27    30    1
    14    30    31    2
    15    30    32    1
    16    27    28   ar
    17    28    29   ar
    18     4     5   ar
    19     5     6   ar
    20     6     7    1
    21     6     8   ar
    22     8     9   ar
    23     9    12    1
    24    12    13   ar
    25    13    14   ar
    26    14    15   ar
    27    15    16   ar
    28    16    17   ar
    29     9    10   ar
    30    10    11   ar
    31    11     2   ar
    32    29    24   ar
    33    10     5   ar
    34    17    12   ar
    35    20    21    1
@<TRIPOS>MOLECULE
*****
 32 35 0 0 0
SMALL
GASTEIGER

@<TRIPOS>ATOM
      1 C          55.8195   91.4209   -1.7953 C.3     1  UNL1        0.0521
      2 C          56.2294   92.5676   -2.6712 C.ar    1  UNL1        0.0612
      3 C          57.6660   92.7300   -3.0707 C.ar    1  UNL1        0.0195
      4 C          58.0759   93.8767   -3.9466 C.ar    1  UNL1        0.0603
      5 C          57.0491   94.8608   -4.4231 C.ar    1  UNL1        0.0555
      6 C          57.1542   96.0810   -5.2891 C.ar    1  UNL1        0.0824
      7 C          58.4105   96.6157   -5.9103 C.3     1  UNL1        0.0540
      8 N          55.7825   96.6728   -5.4248 N.ar    1  UNL1       -0.1681
      9 N          54.8296   95.8182   -4.6427 N.ar    1  UNL1       -0.2125
     10 C          55.6124   94.6984   -4.0236 C.ar    1  UNL1        0.1646
     11 N          55.2026   93.5517   -3.1477 N.ar    1  UNL1       -0.2309
     12 C          53.3532   96.0439   -4.5041 C.ar    1  UNL1        0.0844
     13 C          52.7165   96.0291   -3.1460 C.ar    1  UNL1        0.0192
     14 C          51.2401   96.2547   -3.0074 C.ar    1  UNL1        0.0015
     15 C          50.4004   96.4952   -4.2268 C.ar    1  UNL1        0.0001
     16 C          51.0371   96.5099   -5.5849 C.ar    1  UNL1        0.0015
     17 C          52.5135   96.2843   -5.7235 C.ar    1  UNL1        0.0192
     18 C          59.5126   94.0391   -4.3461 C.2     1  UNL1        0.2647
     19 O          59.9321   93.7735   -5.7616 O.2     1  UNL1       -0.2684
     20 N          60.5297   94.4670   -3.3301 N.am    1  UNL1       -0.2023
     21 H          60.2544   94.6413   -2.4011 H       1  UNL1        0.1776
     22 N          61.9665   94.6294   -3.7296 N.2     1  UNL1       -0.1773
     23 C          62.3427   94.6575   -5.1813 C.2     1  UNL1        0.1176
     24 C          63.7794   94.8199   -5.5807 C.ar    1  UNL1        0.0211
     25 C          64.7360   93.6755   -5.4219 C.ar    1  UNL1        0.0079
     26 C          66.1727   93.8380   -5.8214 C.ar    1  UNL1        0.0753
     27 C          66.6528   95.1448   -6.3796 C.ar    1  UNL1        0.2901
     28 C          65.6962   96.2892   -6.5384 C.ar    1  UNL1        0.0753
     29 C          64.2595   96.1268   -6.1390 C.ar    1  UNL1        0.0079
     30 N          68.0894   95.3072   -6.7790 N.pl3   1  UNL1        0.0809
     31 O          68.8137   96.5843   -6.4713 O.2     1  UNL1        0.0415
     32 O          68.8019   94.1926   -7.4861 O.co2   1  UNL1       -0.5760
@<TRIPOS>UNITY_ATOM_ATTR
30 1
charge 1
32 1
charge -1
@<TRIPOS>BOND
     1     1     2    1
     2     2     3   ar
     3     3     4   ar
     4     4    18    1
     5    18    19    2
     6    18    20   am
     7    20    22    1
     8    22    23    2
     9    23    24    1
    10    24    25   ar
    11    25    26   ar
    12    26    27   ar
    13    27    30    1
    14    30    31    2
    15    30    32    1
    16    27    28   ar
    17    28    29   ar
    18     4     5   ar
    19     5     6   ar
    20     6     7    1
    21     6     8   ar
    22     8     9   ar
    23     9    12    1
    24    12    13   ar
    25    13    14   ar
    26    14    15   ar
    27    15    16   ar
    28    16    17   ar
    29     9    10   ar
    30    10    11   ar
    31    11     2   ar
    32    29    24   ar
    33    10     5   ar
    34    17    12   ar
    35    20    21    1
