@<TRIPOS>MOLECULE
*****
 36 39 0 0 0
SMALL
GASTEIGER

@<TRIPOS>ATOM
      1 C          61.8077   81.3742   14.2488 C.3     1  UNL1        0.0326
      2 C          62.2843   82.7119   13.7658 C.ar    1  UNL1       -0.0032
      3 C          62.5146   83.1022   12.3358 C.ar    1  UNL1        0.0718
      4 N          62.9868   84.5257   12.3142 N.ar    1  UNL1       -0.3220
      5 C          63.0484   85.0152   13.7308 C.ar    1  UNL1        0.0600
      6 C          63.4438   86.3369   14.3198 C.ar    1  UNL1        0.0182
      7 C          63.4049   86.5376   15.8057 C.ar    1  UNL1        0.0311
      8 C          62.9707   85.4166   16.7028 C.ar    1  UNL1        0.1402
      9 F          62.9318   85.6172   18.1889 F       1  UNL1       -0.2042
     10 C          62.5754   84.0949   16.1139 C.ar    1  UNL1        0.0308
     11 C          62.6142   83.8942   14.6279 C.ar    1  UNL1        0.0155
     12 C          63.8780   87.4580   13.4226 C.2     1  UNL1        0.0062
     13 C          63.7058   88.8812   13.8638 C.2     1  UNL1        0.0593
     14 C          64.1400   90.0022   12.9667 C.2     1  UNL1        0.2644
     15 O          63.4492   90.2226   11.6536 O.2     1  UNL1       -0.2686
     16 N          65.2650   90.9030   13.3828 N.am    1  UNL1       -0.1809
     17 H          65.7184   90.7584   14.2446 H       1  UNL1        0.1769
     18 S          65.6992   92.0241   12.4856 S.O2    1  UNL1        0.0816
     19 O          67.1062   91.8784   12.9845 O.2     1  UNL1       -0.1494
     20 O          64.2921   92.1697   11.9868 O.2     1  UNL1       -0.1494
     21 C          66.1333   93.1451   11.5885 C.ar    1  UNL1        0.1564
     22 C          66.1348   94.6038   11.9379 C.ar    1  UNL1        0.0396
     23 C          66.6446   95.3645   10.7498 C.ar    1  UNL1        0.0762
     24 CL         66.8115   96.8525   10.6610 Cl      1  UNL1       -0.0808
     25 C          66.9580   94.3758    9.6661 C.ar    1  UNL1        0.0987
     26 CL         67.4934   94.7016    8.3033 Cl      1  UNL1       -0.0742
     27 S          66.6420   93.0042   10.1845 S.2     1  UNL1       -0.0546
     28 C          63.3362   85.3203   11.0909 C.3     1  UNL1        0.1336
     29 C          62.2510   85.9626   10.2785 C.ar    1  UNL1        0.0110
     30 C          61.2259   86.8291   10.9482 C.ar    1  UNL1       -0.0007
     31 C          60.1408   87.4713   10.1359 C.ar    1  UNL1        0.0112
     32 C          60.0806   87.2471    8.6539 C.ar    1  UNL1        0.0585
     33 CL         58.9954   87.8893    7.8415 Cl      1  UNL1       -0.0822
     34 C          61.1057   86.3806    7.9843 C.ar    1  UNL1        0.0225
     35 C          62.1909   85.7383    8.7966 C.ar    1  UNL1        0.0563
     36 CL         63.2160   84.8718    8.1271 Cl      1  UNL1       -0.0825
@<TRIPOS>BOND
     1     1     2    1
     2     2     3   ar
     3     3     4   ar
     4     4    28    1
     5    28    29    1
     6    29    30   ar
     7    30    31   ar
     8    31    32   ar
     9    32    33    1
    10    32    34   ar
    11    34    35   ar
    12    35    36    1
    13     4     5   ar
    14     5     6   ar
    15     6    12    1
    16    12    13    2
    17    13    14    1
    18    14    15    2
    19    14    16   am
    20    16    18    1
    21    18    19    2
    22    18    20    2
    23    18    21    1
    24    21    22   ar
    25    22    23   ar
    26    23    24    1
    27    23    25   ar
    28    25    26    1
    29    25    27   ar
    30     6     7   ar
    31     7     8   ar
    32     8     9    1
    33     8    10   ar
    34    10    11   ar
    35    11     2   ar
    36    35    29   ar
    37    11     5   ar
    38    27    21   ar
    39    16    17    1
@<TRIPOS>MOLECULE
*****
 36 39 0 0 0
SMALL
GASTEIGER

@<TRIPOS>ATOM
      1 C          65.0158   84.8627   16.0341 C.3     1  UNL1        0.0326
      2 C          64.3534   85.4717   14.8339 C.ar    1  UNL1       -0.0032
      3 C          64.1976   86.9387   14.5623 C.ar    1  UNL1        0.0718
      4 N          63.4785   87.0942   13.2552 N.ar    1  UNL1       -0.3220
      5 C          63.1900   85.7233   12.7189 C.ar    1  UNL1        0.0600
      6 C          62.5047   85.2586   11.4681 C.ar    1  UNL1        0.0182
      7 C          62.3602   83.7912   11.1930 C.ar    1  UNL1        0.0311
      8 C          62.9009   82.7885   12.1687 C.ar    1  UNL1        0.1402
      9 F          62.7564   81.3209   11.8937 F       1  UNL1       -0.2042
     10 C          63.5862   83.2532   13.4195 C.ar    1  UNL1        0.0308
     11 C          63.7307   84.7206   13.6946 C.ar    1  UNL1        0.0155
     12 C          61.9639   86.2615   10.4924 C.2     1  UNL1        0.0062
     13 C          60.7846   87.1101   10.8652 C.2     1  UNL1        0.0593
     14 C          60.2438   88.1129    9.8896 C.2     1  UNL1        0.2644
     15 O          59.7204   89.4302   10.3805 O.2     1  UNL1       -0.2686
     16 N          60.2265   87.7985    8.4230 N.am    1  UNL1       -0.1809
     17 H          60.5700   86.9340    8.1008 H       1  UNL1        0.1769
     18 S          59.6857   88.8014    7.4473 S.O2    1  UNL1        0.0816
     19 O          60.7503   89.7750    7.8579 O.2     1  UNL1       -0.1494
     20 O          58.6211   87.8278    7.0367 O.2     1  UNL1       -0.1494
     21 C          59.1448   89.8042    6.4717 C.ar    1  UNL1        0.1564
     22 C          57.6952   90.0952    6.2188 C.ar    1  UNL1        0.0396
     23 C          57.6131   91.1629    5.1685 C.ar    1  UNL1        0.0762
     24 CL         56.3533   91.7573    4.6121 Cl      1  UNL1       -0.0808
     25 C          59.0121   91.5318    4.7722 C.ar    1  UNL1        0.0987
     26 CL         59.3968   92.5599    3.7500 Cl      1  UNL1       -0.0742
     27 S          59.9587   90.6921    5.5777 S.2     1  UNL1       -0.0546
     28 C          63.1122   88.3926   12.5994 C.3     1  UNL1        0.1336
     29 C          63.8973   89.6341   12.9035 C.ar    1  UNL1        0.0110
     30 C          64.6692   89.7381   14.1854 C.ar    1  UNL1       -0.0007
     31 C          65.4542   90.9795   14.4895 C.ar    1  UNL1        0.0112
     32 C          65.4674   92.1170   13.5117 C.ar    1  UNL1        0.0585
     33 CL         66.2525   93.3585   13.8157 Cl      1  UNL1       -0.0822
     34 C          64.6955   92.0129   12.2298 C.ar    1  UNL1        0.0225
     35 C          63.9104   90.7715   11.9257 C.ar    1  UNL1        0.0563
     36 CL         63.1385   90.6674   10.6438 Cl      1  UNL1       -0.0825
@<TRIPOS>BOND
     1     1     2    1
     2     2     3   ar
     3     3     4   ar
     4     4    28    1
     5    28    29    1
     6    29    30   ar
     7    30    31   ar
     8    31    32   ar
     9    32    33    1
    10    32    34   ar
    11    34    35   ar
    12    35    36    1
    13     4     5   ar
    14     5     6   ar
    15     6    12    1
    16    12    13    2
    17    13    14    1
    18    14    15    2
    19    14    16   am
    20    16    18    1
    21    18    19    2
    22    18    20    2
    23    18    21    1
    24    21    22   ar
    25    22    23   ar
    26    23    24    1
    27    23    25   ar
    28    25    26    1
    29    25    27   ar
    30     6     7   ar
    31     7     8   ar
    32     8     9    1
    33     8    10   ar
    34    10    11   ar
    35    11     2   ar
    36    35    29   ar
    37    11     5   ar
    38    27    21   ar
    39    16    17    1
@<TRIPOS>MOLECULE
*****
 36 39 0 0 0
SMALL
GASTEIGER

@<TRIPOS>ATOM
      1 C          62.7818   79.1699    9.4940 C.3     1  UNL1        0.0326
      2 C          62.9471   80.4624   10.2370 C.ar    1  UNL1       -0.0032
      3 C          63.5202   81.7321    9.6807 C.ar    1  UNL1        0.0718
      4 N          63.4957   82.7666   10.7667 N.ar    1  UNL1       -0.3220
      5 C          62.9074   82.1362   11.9941 C.ar    1  UNL1        0.0600
      6 C          62.6366   82.6749   13.3676 C.ar    1  UNL1        0.0182
      7 C          62.0268   81.7896   14.4137 C.ar    1  UNL1        0.0311
      8 C          61.6878   80.3656   14.0864 C.ar    1  UNL1        0.1402
      9 F          61.0780   79.4802   15.1325 F       1  UNL1       -0.2042
     10 C          61.9586   79.8269   12.7129 C.ar    1  UNL1        0.0308
     11 C          62.5684   80.7122   11.6668 C.ar    1  UNL1        0.0155
     12 C          62.9756   84.0990   13.6949 C.2     1  UNL1        0.0062
     13 C          64.2832   84.4264   14.3530 C.2     1  UNL1        0.0593
     14 C          64.6223   85.8504   14.6803 C.2     1  UNL1        0.2644
     15 O          66.0111   86.2088   15.1194 O.2     1  UNL1       -0.2686
     16 N          63.5725   86.9161   14.5687 N.am    1  UNL1       -0.1809
     17 H          62.6610   86.6809   14.2805 H       1  UNL1        0.1769
     18 S          63.9117   88.3401   14.8960 S.O2    1  UNL1        0.0816
     19 O          64.2426   88.5926   13.4550 O.2     1  UNL1       -0.1494
     20 O          63.5807   88.0876   16.3371 O.2     1  UNL1       -0.1494
     21 C          64.2508   89.7641   15.2234 C.ar    1  UNL1        0.1564
     22 C          63.6437   90.5847   16.3225 C.ar    1  UNL1        0.0396
     23 C          64.2742   91.9453   16.2876 C.ar    1  UNL1        0.0762
     24 CL         63.9627   93.0854   17.2112 Cl      1  UNL1       -0.0808
     25 C          65.2710   91.9656   15.1669 C.ar    1  UNL1        0.0987
     26 CL         66.1313   93.1295   14.7730 Cl      1  UNL1       -0.0742
     27 S          65.2565   90.6175   14.5092 S.2     1  UNL1       -0.0546
     28 C          63.9752   84.1828   10.6463 C.3     1  UNL1        0.1336
     29 C          63.0010   85.2807   10.3373 C.ar    1  UNL1        0.0110
     30 C          62.4142   86.0978   11.4500 C.ar    1  UNL1       -0.0007
     31 C          61.4401   87.1958   11.1409 C.ar    1  UNL1        0.0112
     32 C          61.0527   87.4767    9.7192 C.ar    1  UNL1        0.0585
     33 CL         60.0785   88.5746    9.4102 Cl      1  UNL1       -0.0822
     34 C          61.6395   86.6595    8.6066 C.ar    1  UNL1        0.0225
     35 C          62.6137   85.5616    8.9157 C.ar    1  UNL1        0.0563
     36 CL         63.2005   84.7444    7.8031 Cl      1  UNL1       -0.0825
@<TRIPOS>BOND
     1     1     2    1
     2     2     3   ar
     3     3     4   ar
     4     4    28    1
     5    28    29    1
     6    29    30   ar
     7    30    31   ar
     8    31    32   ar
     9    32    33    1
    10    32    34   ar
    11    34    35   ar
    12    35    36    1
    13     4     5   ar
    14     5     6   ar
    15     6    12    1
    16    12    13    2
    17    13    14    1
    18    14    15    2
    19    14    16   am
    20    16    18    1
    21    18    19    2
    22    18    20    2
    23    18    21    1
    24    21    22   ar
    25    22    23   ar
    26    23    24    1
    27    23    25   ar
    28    25    26    1
    29    25    27   ar
    30     6     7   ar
    31     7     8   ar
    32     8     9    1
    33     8    10   ar
    34    10    11   ar
    35    11     2   ar
    36    35    29   ar
    37    11     5   ar
    38    27    21   ar
    39    16    17    1
@<TRIPOS>MOLECULE
*****
 36 39 0 0 0
SMALL
GASTEIGER

@<TRIPOS>ATOM
      1 C          60.2599   84.1422    5.9281 C.3     1  UNL1        0.0326
      2 C          60.9328   84.9224    7.0183 C.ar    1  UNL1       -0.0032
      3 C          62.0901   84.4560    7.8509 C.ar    1  UNL1        0.0718
      4 N          62.4391   85.5513    8.8144 N.ar    1  UNL1       -0.3220
      5 C          61.4975   86.6947    8.5773 C.ar    1  UNL1        0.0600
      6 C          61.3675   88.0396    9.2288 C.ar    1  UNL1        0.0182
      7 C          60.3067   88.9957    8.7702 C.ar    1  UNL1        0.0311
      8 C          59.3758   88.6070    7.6601 C.ar    1  UNL1        0.1402
      9 F          58.3149   89.5632    7.2015 F       1  UNL1       -0.2042
     10 C          59.5058   87.2621    7.0086 C.ar    1  UNL1        0.0308
     11 C          60.5666   86.3060    7.4672 C.ar    1  UNL1        0.0155
     12 C          62.2985   88.4282   10.3389 C.2     1  UNL1        0.0062
     13 C          62.6621   89.8691   10.5428 C.2     1  UNL1        0.0593
     14 C          63.5930   90.2578   11.6529 C.2     1  UNL1        0.2644
     15 O          63.7778   89.3470   12.8303 O.2     1  UNL1       -0.2686
     16 N          64.3392   91.5574   11.5856 N.am    1  UNL1       -0.1809
     17 H          64.2179   92.1552   10.8128 H       1  UNL1        0.1769
     18 S          65.2701   91.9461   12.6957 S.O2    1  UNL1        0.0816
     19 O          66.3998   92.0447   11.7139 O.2     1  UNL1       -0.1494
     20 O          64.1404   91.8474   13.6775 O.2     1  UNL1       -0.1494
     21 C          66.2010   92.3347   13.8058 C.ar    1  UNL1        0.1564
     22 C          66.7091   91.4290   14.8882 C.ar    1  UNL1        0.0396
     23 C          67.6093   92.2319   15.7799 C.ar    1  UNL1        0.0762
     24 CL         68.3340   91.7223   16.9903 Cl      1  UNL1       -0.0808
     25 C          67.6575   93.6338   15.2485 C.ar    1  UNL1        0.0987
     26 CL         68.4390   94.7723   15.8343 Cl      1  UNL1       -0.0742
     27 S          66.7872   93.6974   14.0285 S.2     1  UNL1       -0.0546
     28 C          63.5369   85.5105    9.8358 C.3     1  UNL1        0.1336
     29 C          63.3497   84.7373   11.1075 C.ar    1  UNL1        0.0110
     30 C          62.7386   85.4012   12.3058 C.ar    1  UNL1       -0.0007
     31 C          62.5515   84.6281   13.5775 C.ar    1  UNL1        0.0112
     32 C          62.9754   83.1910   13.6509 C.ar    1  UNL1        0.0585
     33 CL         62.7882   82.4179   14.9226 Cl      1  UNL1       -0.0822
     34 C          63.5865   82.5272   12.4526 C.ar    1  UNL1        0.0225
     35 C          63.7736   83.3004   11.1809 C.ar    1  UNL1        0.0563
     36 CL         64.3847   82.6366    9.9826 Cl      1  UNL1       -0.0825
@<TRIPOS>BOND
     1     1     2    1
     2     2     3   ar
     3     3     4   ar
     4     4    28    1
     5    28    29    1
     6    29    30   ar
     7    30    31   ar
     8    31    32   ar
     9    32    33    1
    10    32    34   ar
    11    34    35   ar
    12    35    36    1
    13     4     5   ar
    14     5     6   ar
    15     6    12    1
    16    12    13    2
    17    13    14    1
    18    14    15    2
    19    14    16   am
    20    16    18    1
    21    18    19    2
    22    18    20    2
    23    18    21    1
    24    21    22   ar
    25    22    23   ar
    26    23    24    1
    27    23    25   ar
    28    25    26    1
    29    25    27   ar
    30     6     7   ar
    31     7     8   ar
    32     8     9    1
    33     8    10   ar
    34    10    11   ar
    35    11     2   ar
    36    35    29   ar
    37    11     5   ar
    38    27    21   ar
    39    16    17    1
