@<TRIPOS>MOLECULE
*****
 9 10 0 0 0
SMALL
GASTEIGER

@<TRIPOS>ATOM
      1 C          63.0548   81.0983   11.0344 C.2     1  UNL1       -0.0197
      2 C          63.8874   82.1784   10.4100 C.2     1  UNL1       -0.0026
      3 C          64.4727   83.2631   11.2649 C.2     1  UNL1        0.0200
      4 C          64.2253   83.2676   12.7444 C.2     1  UNL1        0.0969
      5 N          64.6681   84.1994   13.8332 N.2     1  UNL1       -0.2228
      6 C          64.1092   83.6952   15.1307 C.2     1  UNL1        0.1986
      7 N          63.3209   82.4517   14.8437 N.2     1  UNL1       -0.2265
      8 C          63.3927   82.1875   13.3688 C.2     1  UNL1        0.0827
      9 C          62.8074   81.1028   12.5138 C.3     1  UNL1        0.0734
@<TRIPOS>BOND
     1     1     2    2
     2     2     3    1
     3     3     4    2
     4     4     5    1
     5     5     6    2
     6     6     7    1
     7     7     8    2
     8     8     9    1
     9     9     1    1
    10     8     4    1
@<TRIPOS>MOLECULE
*****
 9 10 0 0 0
SMALL
GASTEIGER

@<TRIPOS>ATOM
      1 C          63.8957   82.2097   10.3971 C.2     1  UNL1       -0.0197
      2 C          63.0607   81.1239   11.0084 C.2     1  UNL1       -0.0026
      3 C          62.8110   81.1125   12.4874 C.2     1  UNL1        0.0200
      4 C          63.3964   82.1869   13.3551 C.2     1  UNL1        0.0969
      5 N          63.3228   82.4350   14.8326 N.2     1  UNL1       -0.2228
      6 C          64.1123   83.6743   15.1345 C.2     1  UNL1        0.1986
      7 N          64.6739   84.1920   13.8435 N.2     1  UNL1       -0.2265
      8 C          64.2314   83.2726   12.7438 C.2     1  UNL1        0.0827
      9 C          64.4810   83.2841   11.2648 C.3     1  UNL1        0.0734
@<TRIPOS>BOND
     1     1     2    2
     2     2     3    1
     3     3     4    2
     4     4     5    1
     5     5     6    2
     6     6     7    1
     7     7     8    2
     8     8     9    1
     9     9     1    1
    10     8     4    1
@<TRIPOS>MOLECULE
*****
 9 10 0 0 0
SMALL
GASTEIGER

@<TRIPOS>ATOM
      1 C          64.1777   82.8699   10.6962 C.2     1  UNL1       -0.0197
      2 C          63.3399   84.0962   10.4863 C.2     1  UNL1       -0.0026
      3 C          62.6647   84.7522   11.6541 C.2     1  UNL1        0.0200
      4 C          62.8273   84.1818   13.0319 C.2     1  UNL1        0.0969
      5 N          62.2870   84.6078   14.3647 N.2     1  UNL1       -0.2228
      6 C          62.7908   83.6446   15.3985 C.2     1  UNL1        0.1986
      7 N          63.6425   82.6234   14.7045 N.2     1  UNL1       -0.2265
      8 C          63.6651   82.9555   13.2418 C.2     1  UNL1        0.0827
      9 C          64.3403   82.2995   12.0740 C.3     1  UNL1        0.0734
@<TRIPOS>BOND
     1     1     2    2
     2     2     3    1
     3     3     4    2
     4     4     5    1
     5     5     6    2
     6     6     7    1
     7     7     8    2
     8     8     9    1
     9     9     1    1
    10     8     4    1
@<TRIPOS>MOLECULE
*****
 9 10 0 0 0
SMALL
GASTEIGER

@<TRIPOS>ATOM
      1 C          63.3358   84.1137   10.4850 C.2     1  UNL1       -0.0197
      2 C          64.1968   82.9028   10.6908 C.2     1  UNL1       -0.0026
      3 C          64.3745   82.3341   12.0674 C.2     1  UNL1        0.0200
      4 C          63.6913   82.9763   13.2382 C.2     1  UNL1        0.0969
      5 N          63.6798   82.6426   14.7005 N.2     1  UNL1       -0.2228
      6 C          62.8117   83.6472   15.3985 C.2     1  UNL1        0.1986
      7 N          62.2867   84.6019   14.3675 N.2     1  UNL1       -0.2265
      8 C          62.8304   84.1872   13.0323 C.2     1  UNL1        0.0827
      9 C          62.6526   84.7559   11.6557 C.3     1  UNL1        0.0734
@<TRIPOS>BOND
     1     1     2    2
     2     2     3    1
     3     3     4    2
     4     4     5    1
     5     5     6    2
     6     6     7    1
     7     7     8    2
     8     8     9    1
     9     9     1    1
    10     8     4    1
@<TRIPOS>MOLECULE
*****
 9 10 0 0 0
SMALL
GASTEIGER

@<TRIPOS>ATOM
      1 C          62.3633   85.8757    8.6837 C.2     1  UNL1       -0.0197
      2 C          61.6501   86.2657    9.9442 C.2     1  UNL1       -0.0026
      3 C          61.9149   85.5187   11.2177 C.2     1  UNL1        0.0200
      4 C          62.8930   84.3815   11.2306 C.2     1  UNL1        0.0969
      5 N          63.3552   83.4675   12.3264 N.2     1  UNL1       -0.2228
      6 C          64.3541   82.5125   11.7431 C.2     1  UNL1        0.1986
      7 N          64.5093   82.8364   10.2868 N.2     1  UNL1       -0.2265
      8 C          63.6063   83.9915    9.9700 C.2     1  UNL1        0.0827
      9 C          63.3415   84.7386    8.6966 C.3     1  UNL1        0.0734
@<TRIPOS>BOND
     1     1     2    2
     2     2     3    1
     3     3     4    2
     4     4     5    1
     5     5     6    2
     6     6     7    1
     7     7     8    2
     8     8     9    1
     9     9     1    1
    10     8     4    1
@<TRIPOS>MOLECULE
*****
 9 10 0 0 0
SMALL
GASTEIGER

@<TRIPOS>ATOM
      1 C          61.6137   86.2481    9.9599 C.2     1  UNL1       -0.0197
      2 C          62.3290   85.8737    8.6958 C.2     1  UNL1       -0.0026
      3 C          63.3219   84.7493    8.7007 C.2     1  UNL1        0.0200
      4 C          63.5995   83.9994    9.9697 C.2     1  UNL1        0.0969
      5 N          64.5181   82.8545   10.2786 N.2     1  UNL1       -0.2228
      6 C          64.3705   82.5213   11.7337 C.2     1  UNL1        0.1986
      7 N          63.3607   83.4603   12.3241 N.2     1  UNL1       -0.2265
      8 C          62.8842   84.3738   11.2338 C.2     1  UNL1        0.0827
      9 C          61.8913   85.4982   11.2289 C.3     1  UNL1        0.0734
@<TRIPOS>BOND
     1     1     2    2
     2     2     3    1
     3     3     4    2
     4     4     5    1
     5     5     6    2
     6     6     7    1
     7     7     8    2
     8     8     9    1
     9     9     1    1
    10     8     4    1
@<TRIPOS>MOLECULE
*****
 9 10 0 0 0
SMALL
GASTEIGER

@<TRIPOS>ATOM
      1 C          63.4926   83.4696   11.3996 C.2     1  UNL1       -0.0197
      2 C          63.8522   83.5542    9.9458 C.2     1  UNL1       -0.0026
      3 C          63.2916   84.6569    9.0974 C.2     1  UNL1        0.0200
      4 C          62.3715   85.6751    9.7028 C.2     1  UNL1        0.0969
      5 N          61.6696   86.8659    9.1202 N.2     1  UNL1       -0.2228
      6 C          60.8762   87.5173   10.2139 C.2     1  UNL1        0.1986
      7 N          61.0877   86.7291   11.4725 N.2     1  UNL1       -0.2265
      8 C          62.0119   85.5906   11.1566 C.2     1  UNL1        0.0827
      9 C          62.5725   84.4878   12.0050 C.3     1  UNL1        0.0734
@<TRIPOS>BOND
     1     1     2    2
     2     2     3    1
     3     3     4    2
     4     4     5    1
     5     5     6    2
     6     6     7    1
     7     7     8    2
     8     8     9    1
     9     9     1    1
    10     8     4    1
@<TRIPOS>MOLECULE
*****
 9 10 0 0 0
SMALL
GASTEIGER

@<TRIPOS>ATOM
      1 C          63.3835   84.3983   10.9741 C.2     1  UNL1       -0.0197
      2 C          63.8369   83.2780   10.0856 C.2     1  UNL1       -0.0026
      3 C          63.6582   81.8544   10.5232 C.2     1  UNL1        0.0200
      4 C          63.0262   81.5511   11.8492 C.2     1  UNL1        0.0969
      5 N          62.7212   80.2567   12.5431 N.2     1  UNL1       -0.2228
      6 C          62.0793   80.5769   13.8605 C.2     1  UNL1        0.1986
      7 N          61.9876   82.0692   13.9808 N.2     1  UNL1       -0.2265
      8 C          62.5728   82.6713   12.7377 C.2     1  UNL1        0.0827
      9 C          62.7515   84.0949   12.3002 C.3     1  UNL1        0.0734
@<TRIPOS>BOND
     1     1     2    2
     2     2     3    1
     3     3     4    2
     4     4     5    1
     5     5     6    2
     6     6     7    1
     7     7     8    2
     8     8     9    1
     9     9     1    1
    10     8     4    1
@<TRIPOS>MOLECULE
*****
 9 10 0 0 0
SMALL
GASTEIGER

@<TRIPOS>ATOM
      1 C          63.4666   84.3828    9.1021 C.2     1  UNL1       -0.0197
      2 C          63.3168   84.0472   10.5564 C.2     1  UNL1       -0.0026
      3 C          62.4503   84.8977   11.4370 C.2     1  UNL1        0.0200
      4 C          61.7334   86.0839   10.8635 C.2     1  UNL1        0.0969
      5 N          60.8177   87.0986   11.4814 N.2     1  UNL1       -0.2228
      6 C          60.4015   88.0613   10.4091 C.2     1  UNL1        0.1986
      7 N          61.0599   87.6417    9.1284 N.2     1  UNL1       -0.2265
      8 C          61.8831   86.4195    9.4092 C.2     1  UNL1        0.0827
      9 C          62.7497   85.5690    8.5285 C.3     1  UNL1        0.0734
@<TRIPOS>BOND
     1     1     2    2
     2     2     3    1
     3     3     4    2
     4     4     5    1
     5     5     6    2
     6     6     7    1
     7     7     8    2
     8     8     9    1
     9     9     1    1
    10     8     4    1
