@<TRIPOS>MOLECULE
*****
 45 50 0 0 0
SMALL
GASTEIGER

@<TRIPOS>ATOM
      1 C          61.1229   92.8457    2.4553 C.ar    1  UNL1        0.0046
      2 C          62.0135   91.9768    3.2930 C.ar    1  UNL1        0.0017
      3 C          61.4344   91.1775    4.4225 C.ar    1  UNL1        0.0191
      4 C          59.9647   91.2471    4.7142 C.ar    1  UNL1        0.0835
      5 C          59.0741   92.1160    3.8766 C.ar    1  UNL1        0.0991
      6 C          59.6532   92.9153    2.7471 C.ar    1  UNL1        0.0207
      7 N          57.6739   91.9838    4.3982 N.ar    1  UNL1       -0.2236
      8 C          57.6992   91.0332    5.5582 C.ar    1  UNL1        0.1831
      9 N          59.1149   90.5778    5.7536 N.ar    1  UNL1       -0.2823
     10 N          62.5811   94.2659   -0.8495 N.ar    1  UNL1       -0.2494
     11 C          62.0231   93.1291   -0.0456 C.ar    1  UNL1        0.0966
     12 C          61.7019   93.6450    1.3258 C.ar    1  UNL1        0.0397
     13 C          62.0615   95.1007    1.3694 C.ar    1  UNL1        0.1216
     14 N          62.6049   95.4844    0.0250 N.ar    1  UNL1       -0.1677
     15 C          63.0356   94.1964   -2.2773 C.3     1  UNL1        0.1289
     16 C          62.0507   93.8793   -3.3633 C.3     1  UNL1        0.0437
     17 C          60.9762   94.8658   -3.7129 C.3     1  UNL1        0.0742
     18 N          56.7519   94.1784   -2.3230 N.3     1  UNL1       -0.2703
     19 C          57.0760   94.1356   -3.7869 C.3     1  UNL1        0.0897
     20 C          58.4843   94.3647   -4.2502 C.3     1  UNL1        0.0897
     21 N          59.5681   94.6367   -3.2496 N.3     1  UNL1       -0.2703
     22 C          59.2439   94.6795   -1.7858 C.3     1  UNL1        0.0897
     23 C          57.8358   94.4503   -1.3224 C.3     1  UNL1        0.0897
     24 C          54.3540   95.0761   -1.8822 C.3     1  UNL1        0.0188
     25 C          55.3437   93.9492   -1.8597 C.3     1  UNL1        0.0722
     26 C          59.5965   89.6212    6.8038 C.ar    1  UNL1        0.0987
     27 C          60.0870   89.9888    8.1729 C.ar    1  UNL1        0.0619
     28 C          60.4657   88.7239    8.8846 C.ar    1  UNL1        0.1512
     29 C          60.2092   87.5746    7.9555 C.ar    1  UNL1        0.1178
     30 S          59.6720   88.1292    6.6695 S.2     1  UNL1       -0.0618
     31 C          60.4480   86.1252    8.2590 C.2     1  UNL1        0.2518
     32 N          60.9901   85.7186    9.5973 N.am    1  UNL1       -0.3248
     33 O          60.1448   85.0824    7.2244 O.2     1  UNL1       -0.2697
     34 H          61.1891   86.4031   10.2764 H       1  UNL1        0.1453
     35 H          61.1469   84.7674    9.7966 H       1  UNL1        0.1453
     36 O          61.0061   88.6255   10.2805 O.3     1  UNL1       -0.4740
     37 C          61.0775   89.8493   11.1450 C.3     1  UNL1        0.1891
     38 C          59.8430   90.3570   11.8293 C.3     1  UNL1        0.0523
     39 C          62.3832   90.5653   11.3251 C.ar    1  UNL1        0.0278
     40 C          62.9932   91.3128   10.1767 C.ar    1  UNL1        0.0000
     41 C          64.2989   92.0288   10.3568 C.ar    1  UNL1       -0.0002
     42 C          64.9945   91.9972   11.6853 C.ar    1  UNL1        0.0008
     43 C          64.3845   91.2497   12.8338 C.ar    1  UNL1        0.0112
     44 C          63.0788   90.5337   12.6537 C.ar    1  UNL1        0.0570
     45 CL         62.4688   89.7861   13.8021 Cl      1  UNL1       -0.0825
@<TRIPOS>BOND
     1    24    25    1
     2    25    18    1
     3    18    19    1
     4    19    20    1
     5    20    21    1
     6    21    17    1
     7    17    16    1
     8    16    15    1
     9    15    10    1
    10    10    11   ar
    11    11    12   ar
    12    12     1    1
    13     1     2   ar
    14     2     3   ar
    15     3     4   ar
    16     4     5   ar
    17     5     6   ar
    18     5     7   ar
    19     7     8   ar
    20     8     9   ar
    21     9    26    1
    22    26    27   ar
    23    27    28   ar
    24    28    36    1
    25    36    37    1
    26    37    38    1
    27    37    39    1
    28    39    40   ar
    29    40    41   ar
    30    41    42   ar
    31    42    43   ar
    32    43    44   ar
    33    44    45    1
    34    28    29   ar
    35    29    31    1
    36    31    32   am
    37    31    33    2
    38    29    30   ar
    39    12    13   ar
    40    13    14   ar
    41    21    22    1
    42    22    23    1
    43    23    18    1
    44    14    10   ar
    45     6     1   ar
    46    30    26   ar
    47     9     4   ar
    48    44    39   ar
    49    32    34    1
    50    32    35    1
@<TRIPOS>MOLECULE
*****
 45 50 0 0 0
SMALL
GASTEIGER

@<TRIPOS>ATOM
      1 C          59.9479   89.0698    7.4749 C.ar    1  UNL1        0.0046
      2 C          60.5235   89.6175    8.7472 C.ar    1  UNL1        0.0017
      3 C          61.1920   88.6972    9.7250 C.ar    1  UNL1        0.0191
      4 C          61.2848   87.2293    9.4306 C.ar    1  UNL1        0.0835
      5 C          60.7092   86.6817    8.1583 C.ar    1  UNL1        0.0991
      6 C          60.0407   87.6019    7.1805 C.ar    1  UNL1        0.0207
      7 N          60.9493   85.2012    8.1405 N.ar    1  UNL1       -0.2236
      8 C          61.6734   84.8337    9.4017 C.ar    1  UNL1        0.1831
      9 N          61.8808   86.0872   10.1991 N.ar    1  UNL1       -0.2823
     10 N          58.9214   91.6576    4.7702 N.ar    1  UNL1       -0.2494
     11 C          59.9718   90.9378    5.5630 C.ar    1  UNL1        0.0966
     12 C          59.2793   89.9901    6.4970 C.ar    1  UNL1        0.0397
     13 C          57.8010   90.1242    6.2814 C.ar    1  UNL1        0.1216
     14 N          57.5797   91.1548    5.2142 N.ar    1  UNL1       -0.1677
     15 C          59.1692   92.6976    3.7180 C.3     1  UNL1        0.1289
     16 C          60.0204   92.3715    2.5268 C.3     1  UNL1        0.0437
     17 C          61.4248   92.8917    2.4435 C.3     1  UNL1        0.0742
     18 N          63.3180   93.6251   -1.5724 N.3     1  UNL1       -0.2703
     19 C          64.1167   93.8267   -0.3188 C.3     1  UNL1        0.0897
     20 C          63.4855   93.5822    1.0199 C.3     1  UNL1        0.0897
     21 N          62.0559   93.1362    1.1048 N.3     1  UNL1       -0.2703
     22 C          61.2574   92.9346   -0.1488 C.3     1  UNL1        0.0897
     23 C          61.8884   93.1790   -1.4875 C.3     1  UNL1        0.0897
     24 C          63.7886   92.8625   -4.0111 C.3     1  UNL1        0.0188
     25 C          63.9492   93.8695   -2.9111 C.3     1  UNL1        0.0722
     26 C          62.5641   86.1820   11.5310 C.ar    1  UNL1        0.0987
     27 C          63.1510   87.4235   12.1344 C.ar    1  UNL1        0.0619
     28 C          63.7301   87.0608   13.4697 C.ar    1  UNL1        0.1512
     29 C          63.5011   85.5951   13.6916 C.ar    1  UNL1        0.1178
     30 S          62.7804   85.0519   12.4934 S.2     1  UNL1       -0.0618
     31 C          63.9193   84.8103   14.8996 C.2     1  UNL1        0.2518
     32 N          64.3030   85.5242   16.1618 N.am    1  UNL1       -0.3248
     33 O          63.9537   83.3117   14.8453 O.2     1  UNL1       -0.2697
     34 H          64.2804   86.5078   16.1973 H       1  UNL1        0.1453
     35 H          64.5775   85.0091   16.9546 H       1  UNL1        0.1453
     36 O          64.4175   87.9990   14.4170 O.3     1  UNL1       -0.4740
     37 C          63.9532   89.4206   14.5334 C.3     1  UNL1        0.1891
     38 C          63.1390   89.8489   15.7182 C.3     1  UNL1        0.0523
     39 C          64.3030   90.4138   13.4652 C.ar    1  UNL1        0.0278
     40 C          63.4699   90.5017   12.2210 C.ar    1  UNL1        0.0000
     41 C          63.8197   91.4949   11.1527 C.ar    1  UNL1       -0.0002
     42 C          65.0026   92.4002   11.3287 C.ar    1  UNL1        0.0008
     43 C          65.8358   92.3124   12.5729 C.ar    1  UNL1        0.0112
     44 C          65.4860   91.3192   13.6411 C.ar    1  UNL1        0.0570
     45 CL         66.3192   91.2313   14.8854 Cl      1  UNL1       -0.0825
@<TRIPOS>BOND
     1    24    25    1
     2    25    18    1
     3    18    19    1
     4    19    20    1
     5    20    21    1
     6    21    17    1
     7    17    16    1
     8    16    15    1
     9    15    10    1
    10    10    11   ar
    11    11    12   ar
    12    12     1    1
    13     1     2   ar
    14     2     3   ar
    15     3     4   ar
    16     4     5   ar
    17     5     6   ar
    18     5     7   ar
    19     7     8   ar
    20     8     9   ar
    21     9    26    1
    22    26    27   ar
    23    27    28   ar
    24    28    36    1
    25    36    37    1
    26    37    38    1
    27    37    39    1
    28    39    40   ar
    29    40    41   ar
    30    41    42   ar
    31    42    43   ar
    32    43    44   ar
    33    44    45    1
    34    28    29   ar
    35    29    31    1
    36    31    32   am
    37    31    33    2
    38    29    30   ar
    39    12    13   ar
    40    13    14   ar
    41    21    22    1
    42    22    23    1
    43    23    18    1
    44    14    10   ar
    45     6     1   ar
    46    30    26   ar
    47     9     4   ar
    48    44    39   ar
    49    32    34    1
    50    32    35    1
@<TRIPOS>MOLECULE
*****
 45 50 0 0 0
SMALL
GASTEIGER

@<TRIPOS>ATOM
      1 C          59.9974   89.0826    7.4674 C.ar    1  UNL1        0.0046
      2 C          60.5885   89.6557    8.7212 C.ar    1  UNL1        0.0017
      3 C          61.2448   88.7517    9.7222 C.ar    1  UNL1        0.0191
      4 C          61.3100   87.2746    9.4694 C.ar    1  UNL1        0.0835
      5 C          60.7189   86.7015    8.2155 C.ar    1  UNL1        0.0991
      6 C          60.0626   87.6055    7.2145 C.ar    1  UNL1        0.0207
      7 N          60.9324   85.2170    8.2389 N.ar    1  UNL1       -0.2236
      8 C          61.6555   84.8726    9.5072 C.ar    1  UNL1        0.1831
      9 N          61.8888   86.1442   10.2677 N.ar    1  UNL1       -0.2823
     10 N          59.0055   91.6021    4.6864 N.ar    1  UNL1       -0.2494
     11 C          60.0465   90.8811    5.4904 C.ar    1  UNL1        0.0966
     12 C          59.3411   89.9866    6.4663 C.ar    1  UNL1        0.0397
     13 C          57.8641   90.1548    6.2654 C.ar    1  UNL1        0.1216
     14 N          57.6567   91.1533    5.1654 N.ar    1  UNL1       -0.1677
     15 C          59.2673   92.5973    3.5950 C.3     1  UNL1        0.1289
     16 C          60.6414   92.7208    3.0065 C.3     1  UNL1        0.0437
     17 C          60.8865   93.6625    1.8649 C.3     1  UNL1        0.0742
     18 N          58.0875   93.7039   -1.6584 N.3     1  UNL1       -0.2703
     19 C          58.2471   94.9326   -0.8129 C.3     1  UNL1        0.0897
     20 C          59.1802   94.9188    0.3616 C.3     1  UNL1        0.0897
     21 N          59.9535   93.6763    0.6905 N.3     1  UNL1       -0.2703
     22 C          59.7939   92.4477   -0.1551 C.3     1  UNL1        0.0897
     23 C          58.8609   92.4615   -1.3295 C.3     1  UNL1        0.0897
     24 C          56.9049   92.4577   -3.6074 C.3     1  UNL1        0.0188
     25 C          57.1545   93.7178   -2.8329 C.3     1  UNL1        0.0722
     26 C          62.5797   86.2645   11.5937 C.ar    1  UNL1        0.0987
     27 C          63.1567   87.5205   12.1765 C.ar    1  UNL1        0.0619
     28 C          63.7485   87.1821   13.5126 C.ar    1  UNL1        0.1512
     29 C          63.5373   85.7171   13.7556 C.ar    1  UNL1        0.1178
     30 S          62.8149   85.1500   12.5696 S.2     1  UNL1       -0.0618
     31 C          63.9720   84.9534   14.9712 C.2     1  UNL1        0.2518
     32 N          64.0802   85.6496   16.2954 N.am    1  UNL1       -0.3248
     33 O          64.2986   83.4934   14.8625 O.2     1  UNL1       -0.2697
     34 H          63.8659   86.6079   16.3667 H       1  UNL1        0.1453
     35 H          64.3656   85.1484   17.0933 H       1  UNL1        0.1453
     36 O          64.4316   88.1406   14.4426 O.3     1  UNL1       -0.4740
     37 C          63.9739   89.5671   14.5182 C.3     1  UNL1        0.1891
     38 C          63.1302   90.0238   15.6714 C.3     1  UNL1        0.0523
     39 C          64.3598   90.5368   13.4409 C.ar    1  UNL1        0.0278
     40 C          63.5506   90.6186   12.1805 C.ar    1  UNL1        0.0000
     41 C          63.9365   91.5884   11.1032 C.ar    1  UNL1       -0.0002
     42 C          65.1315   92.4762   11.2862 C.ar    1  UNL1        0.0008
     43 C          65.9407   92.3944   12.5465 C.ar    1  UNL1        0.0112
     44 C          65.5548   91.4247   13.6239 C.ar    1  UNL1        0.0570
     45 CL         66.3640   91.3429   14.8842 Cl      1  UNL1       -0.0825
@<TRIPOS>BOND
     1    24    25    1
     2    25    18    1
     3    18    19    1
     4    19    20    1
     5    20    21    1
     6    21    17    1
     7    17    16    1
     8    16    15    1
     9    15    10    1
    10    10    11   ar
    11    11    12   ar
    12    12     1    1
    13     1     2   ar
    14     2     3   ar
    15     3     4   ar
    16     4     5   ar
    17     5     6   ar
    18     5     7   ar
    19     7     8   ar
    20     8     9   ar
    21     9    26    1
    22    26    27   ar
    23    27    28   ar
    24    28    36    1
    25    36    37    1
    26    37    38    1
    27    37    39    1
    28    39    40   ar
    29    40    41   ar
    30    41    42   ar
    31    42    43   ar
    32    43    44   ar
    33    44    45    1
    34    28    29   ar
    35    29    31    1
    36    31    32   am
    37    31    33    2
    38    29    30   ar
    39    12    13   ar
    40    13    14   ar
    41    21    22    1
    42    22    23    1
    43    23    18    1
    44    14    10   ar
    45     6     1   ar
    46    30    26   ar
    47     9     4   ar
    48    44    39   ar
    49    32    34    1
    50    32    35    1
@<TRIPOS>MOLECULE
*****
 45 50 0 0 0
SMALL
GASTEIGER

@<TRIPOS>ATOM
      1 C          59.9246   88.3064    7.4595 C.ar    1  UNL1        0.0046
      2 C          59.9591   88.3808    8.9572 C.ar    1  UNL1        0.0017
      3 C          60.6949   87.3365    9.7432 C.ar    1  UNL1        0.0191
      4 C          61.3964   86.2178    9.0315 C.ar    1  UNL1        0.0835
      5 C          61.3619   86.1433    7.5338 C.ar    1  UNL1        0.0991
      6 C          60.6261   87.1876    6.7478 C.ar    1  UNL1        0.0207
      7 N          62.1405   84.9327    7.1119 N.ar    1  UNL1       -0.2236
      8 C          62.6561   84.2588    8.3488 C.ar    1  UNL1        0.1831
      9 N          62.1962   85.0530    9.5353 N.ar    1  UNL1       -0.2823
     10 N          58.7094   91.2334    5.2187 N.ar    1  UNL1       -0.2494
     11 C          59.8128   90.4106    5.8148 C.ar    1  UNL1        0.0966
     12 C          59.1888   89.3507    6.6733 C.ar    1  UNL1        0.0397
     13 C          57.6996   89.5184    6.6078 C.ar    1  UNL1        0.1216
     14 N          57.4033   90.6820    5.7087 N.ar    1  UNL1       -0.1677
     15 C          58.8817   92.4024    4.2946 C.3     1  UNL1        0.1289
     16 C          60.1174   92.5166    3.4521 C.3     1  UNL1        0.0437
     17 C          60.3818   93.7720    2.6748 C.3     1  UNL1        0.0742
     18 N          62.9657   93.6366   -1.0069 N.3     1  UNL1       -0.2703
     19 C          61.4766   93.7592   -1.1399 C.3     1  UNL1        0.0897
     20 C          60.6153   93.8043    0.0875 C.3     1  UNL1        0.0897
     21 N          61.2431   93.7269    1.4475 N.3     1  UNL1       -0.2703
     22 C          62.7321   93.6044    1.5804 C.3     1  UNL1        0.0897
     23 C          63.5935   93.5592    0.3532 C.3     1  UNL1        0.0897
     24 C          63.3555   92.8582   -3.4548 C.3     1  UNL1        0.0188
     25 C          63.8270   93.5915   -2.2342 C.3     1  UNL1        0.0722
     26 C          62.4854   84.7379   10.9730 C.ar    1  UNL1        0.0987
     27 C          62.5645   85.7308   12.0945 C.ar    1  UNL1        0.0619
     28 C          62.8742   84.9811   13.3563 C.ar    1  UNL1        0.1512
     29 C          62.9866   83.5249   13.0146 C.ar    1  UNL1        0.1178
     30 S          62.7463   83.3746   11.5416 S.2     1  UNL1       -0.0618
     31 C          63.2865   82.4141   13.9769 C.2     1  UNL1        0.2518
     32 N          63.0151   82.5963   15.4409 N.am    1  UNL1       -0.3248
     33 O          63.8579   81.1211   13.4752 O.2     1  UNL1       -0.2697
     34 H          62.6401   83.4450   15.7701 H       1  UNL1        0.1453
     35 H          63.2120   81.8673   16.0725 H       1  UNL1        0.1453
     36 O          63.0421   85.5822   14.7204 O.3     1  UNL1       -0.4740
     37 C          64.2362   86.4390   15.0205 C.3     1  UNL1        0.1891
     38 C          65.6059   85.8286   15.0617 C.3     1  UNL1        0.0523
     39 C          64.0608   87.9060   15.2794 C.ar    1  UNL1        0.0278
     40 C          64.5688   88.9088   14.2864 C.ar    1  UNL1        0.0000
     41 C          64.3934   90.3759   14.5453 C.ar    1  UNL1       -0.0002
     42 C          63.7100   90.8400   15.7972 C.ar    1  UNL1        0.0008
     43 C          63.2019   89.8372   16.7903 C.ar    1  UNL1        0.0112
     44 C          63.3773   88.3702   16.5314 C.ar    1  UNL1        0.0570
     45 CL         62.8692   87.3674   17.5244 Cl      1  UNL1       -0.0825
@<TRIPOS>BOND
     1    24    25    1
     2    25    18    1
     3    18    19    1
     4    19    20    1
     5    20    21    1
     6    21    17    1
     7    17    16    1
     8    16    15    1
     9    15    10    1
    10    10    11   ar
    11    11    12   ar
    12    12     1    1
    13     1     2   ar
    14     2     3   ar
    15     3     4   ar
    16     4     5   ar
    17     5     6   ar
    18     5     7   ar
    19     7     8   ar
    20     8     9   ar
    21     9    26    1
    22    26    27   ar
    23    27    28   ar
    24    28    36    1
    25    36    37    1
    26    37    38    1
    27    37    39    1
    28    39    40   ar
    29    40    41   ar
    30    41    42   ar
    31    42    43   ar
    32    43    44   ar
    33    44    45    1
    34    28    29   ar
    35    29    31    1
    36    31    32   am
    37    31    33    2
    38    29    30   ar
    39    12    13   ar
    40    13    14   ar
    41    21    22    1
    42    22    23    1
    43    23    18    1
    44    14    10   ar
    45     6     1   ar
    46    30    26   ar
    47     9     4   ar
    48    44    39   ar
    49    32    34    1
    50    32    35    1
@<TRIPOS>MOLECULE
*****
 45 50 0 0 0
SMALL
GASTEIGER

@<TRIPOS>ATOM
      1 C          62.7310   89.4452   11.6537 C.ar    1  UNL1        0.0046
      2 C          62.3287   90.6640   10.8774 C.ar    1  UNL1        0.0017
      3 C          61.5028   90.5219    9.6333 C.ar    1  UNL1        0.0191
      4 C          61.0793   89.1611    9.1655 C.ar    1  UNL1        0.0835
      5 C          61.4817   87.9424    9.9418 C.ar    1  UNL1        0.0991
      6 C          62.3075   88.0844   11.1859 C.ar    1  UNL1        0.0207
      7 N          60.9200   86.7406    9.2417 N.ar    1  UNL1       -0.2236
      8 C          60.1705   87.2166    8.0327 C.ar    1  UNL1        0.1831
      9 N          60.2689   88.7126    7.9856 N.ar    1  UNL1       -0.2823
     10 N          64.8515   90.5486   14.7118 N.ar    1  UNL1       -0.2494
     11 C          64.0806   90.8727   13.4665 C.ar    1  UNL1        0.0966
     12 C          63.5569   89.5872   12.8978 C.ar    1  UNL1        0.0397
     13 C          64.0041   88.4687   13.7917 C.ar    1  UNL1        0.1216
     14 N          64.8041   89.0628   14.9128 N.ar    1  UNL1       -0.1677
     15 C          65.5474   91.5367   15.6002 C.3     1  UNL1        0.1289
     16 C          66.7097   92.3273   15.0767 C.3     1  UNL1        0.0437
     17 C          67.4030   91.8975   13.8178 C.3     1  UNL1        0.0742
     18 N          66.8341   94.2460   10.0217 N.3     1  UNL1       -0.2703
     19 C          67.5997   92.9563    9.9980 C.3     1  UNL1        0.0897
     20 C          67.7894   92.1734   11.2635 C.3     1  UNL1        0.0897
     21 N          67.2133   92.6803   12.5524 N.3     1  UNL1       -0.2703
     22 C          66.4477   93.9699   12.5759 C.3     1  UNL1        0.0897
     23 C          66.2580   94.7528   11.3106 C.3     1  UNL1        0.0897
     24 C          67.3758   96.3234    8.5585 C.3     1  UNL1        0.0188
     25 C          66.6444   95.0288    8.7562 C.3     1  UNL1        0.0722
     26 C          59.6633   89.6036    6.9419 C.ar    1  UNL1        0.0987
     27 C          60.4141   90.5184    6.0202 C.ar    1  UNL1        0.0619
     28 C          59.4155   91.2164    5.1453 C.ar    1  UNL1        0.1512
     29 C          58.0476   90.7331    5.5263 C.ar    1  UNL1        0.1178
     30 S          58.2008   89.7363    6.6366 S.2     1  UNL1       -0.0618
     31 C          56.7537   91.1699    4.9058 C.2     1  UNL1        0.2518
     32 N          56.7639   92.0270    3.6748 N.am    1  UNL1       -0.3248
     33 O          55.4496   90.7496    5.5163 O.2     1  UNL1       -0.2697
     34 H          57.6198   92.3028    3.2741 H       1  UNL1        0.1453
     35 H          55.9147   92.3137    3.2675 H       1  UNL1        0.1453
     36 O          59.7296   92.2215    4.0770 O.3     1  UNL1       -0.4740
     37 C          60.9632   92.0636    3.2383 C.3     1  UNL1        0.1891
     38 C          62.1207   91.2589    3.7510 C.3     1  UNL1        0.0523
     39 C          61.0394   92.7103    1.8870 C.ar    1  UNL1        0.0278
     40 C          59.8266   92.7502    1.0052 C.ar    1  UNL1        0.0000
     41 C          59.9028   93.3969   -0.3460 C.ar    1  UNL1       -0.0002
     42 C          61.1917   94.0037   -0.8155 C.ar    1  UNL1        0.0008
     43 C          62.4045   93.9638    0.0662 C.ar    1  UNL1        0.0112
     44 C          62.3283   93.3171    1.4175 C.ar    1  UNL1        0.0570
     45 CL         63.5411   93.2772    2.2993 Cl      1  UNL1       -0.0825
@<TRIPOS>BOND
     1    24    25    1
     2    25    18    1
     3    18    19    1
     4    19    20    1
     5    20    21    1
     6    21    17    1
     7    17    16    1
     8    16    15    1
     9    15    10    1
    10    10    11   ar
    11    11    12   ar
    12    12     1    1
    13     1     2   ar
    14     2     3   ar
    15     3     4   ar
    16     4     5   ar
    17     5     6   ar
    18     5     7   ar
    19     7     8   ar
    20     8     9   ar
    21     9    26    1
    22    26    27   ar
    23    27    28   ar
    24    28    36    1
    25    36    37    1
    26    37    38    1
    27    37    39    1
    28    39    40   ar
    29    40    41   ar
    30    41    42   ar
    31    42    43   ar
    32    43    44   ar
    33    44    45    1
    34    28    29   ar
    35    29    31    1
    36    31    32   am
    37    31    33    2
    38    29    30   ar
    39    12    13   ar
    40    13    14   ar
    41    21    22    1
    42    22    23    1
    43    23    18    1
    44    14    10   ar
    45     6     1   ar
    46    30    26   ar
    47     9     4   ar
    48    44    39   ar
    49    32    34    1
    50    32    35    1
@<TRIPOS>MOLECULE
*****
 45 50 0 0 0
SMALL
GASTEIGER

@<TRIPOS>ATOM
      1 C          59.8817   89.3586    7.4804 C.ar    1  UNL1        0.0046
      2 C          59.9408   87.8598    7.4745 C.ar    1  UNL1        0.0017
      3 C          60.6553   87.1331    8.5751 C.ar    1  UNL1        0.0191
      4 C          61.3106   87.9051    9.6816 C.ar    1  UNL1        0.0835
      5 C          61.2515   89.4039    9.6876 C.ar    1  UNL1        0.0991
      6 C          60.5371   90.1307    8.5870 C.ar    1  UNL1        0.0207
      7 N          61.9854   89.8919   10.9013 N.ar    1  UNL1       -0.2236
      8 C          62.4981   88.6947   11.6455 C.ar    1  UNL1        0.1831
      9 N          62.0811   87.4667   10.8917 N.ar    1  UNL1       -0.2823
     10 N          58.7245   91.4564    4.4266 N.ar    1  UNL1       -0.2494
     11 C          59.8099   90.9213    5.3129 C.ar    1  UNL1        0.0966
     12 C          59.1672   90.0854    6.3798 C.ar    1  UNL1        0.0397
     13 C          57.6846   90.1040    6.1529 C.ar    1  UNL1        0.1216
     14 N          57.4109   90.9513    4.9458 N.ar    1  UNL1       -0.1677
     15 C          58.9185   92.3413    3.2311 C.3     1  UNL1        0.1289
     16 C          60.1587   93.1762    3.1093 C.3     1  UNL1        0.0437
     17 C          61.4458   92.5470    2.6651 C.3     1  UNL1        0.0742
     18 N          63.2015   93.6029   -1.3414 N.3     1  UNL1       -0.2703
     19 C          64.0060   93.8090   -0.0923 C.3     1  UNL1        0.0897
     20 C          63.4207   93.4570    1.2433 C.3     1  UNL1        0.0897
     21 N          62.0310   92.8990    1.3296 N.3     1  UNL1       -0.2703
     22 C          61.2267   92.6929    0.0805 C.3     1  UNL1        0.0897
     23 C          61.8118   93.0448   -1.2551 C.3     1  UNL1        0.0897
     24 C          63.7036   92.9789   -3.8130 C.3     1  UNL1        0.0188
     25 C          63.7867   93.9549   -2.6770 C.3     1  UNL1        0.0722
     26 C          62.3817   86.0494   11.2798 C.ar    1  UNL1        0.0987
     27 C          62.1628   85.4404   12.6331 C.ar    1  UNL1        0.0619
     28 C          62.5998   84.0068   12.5724 C.ar    1  UNL1        0.1512
     29 C          63.0887   83.7296   11.1817 C.ar    1  UNL1        0.1178
     30 S          62.9539   84.9920   10.3828 S.2     1  UNL1       -0.0618
     31 C          63.6193   82.4201   10.6783 C.2     1  UNL1        0.2518
     32 N          62.9853   81.1344   11.1201 N.am    1  UNL1       -0.3248
     33 O          64.7838   82.3962    9.7331 O.2     1  UNL1       -0.2697
     34 H          62.2210   81.1501   11.7405 H       1  UNL1        0.1453
     35 H          63.3335   80.2748   10.7897 H       1  UNL1        0.1453
     36 O          62.5556   83.0229   13.7039 O.3     1  UNL1       -0.4740
     37 C          63.3458   83.2802   14.9526 C.3     1  UNL1        0.1891
     38 C          64.2187   82.2019   15.5233 C.3     1  UNL1        0.0523
     39 C          63.2633   84.6156   15.6308 C.ar    1  UNL1        0.0278
     40 C          62.1580   84.8946   16.6057 C.ar    1  UNL1        0.0000
     41 C          62.0755   86.2300   17.2838 C.ar    1  UNL1       -0.0002
     42 C          63.0982   87.2863   16.9871 C.ar    1  UNL1        0.0008
     43 C          64.2035   87.0074   16.0122 C.ar    1  UNL1        0.0112
     44 C          64.2861   85.6720   15.3340 C.ar    1  UNL1        0.0570
     45 CL         65.3913   85.3930   14.3591 Cl      1  UNL1       -0.0825
@<TRIPOS>BOND
     1    24    25    1
     2    25    18    1
     3    18    19    1
     4    19    20    1
     5    20    21    1
     6    21    17    1
     7    17    16    1
     8    16    15    1
     9    15    10    1
    10    10    11   ar
    11    11    12   ar
    12    12     1    1
    13     1     2   ar
    14     2     3   ar
    15     3     4   ar
    16     4     5   ar
    17     5     6   ar
    18     5     7   ar
    19     7     8   ar
    20     8     9   ar
    21     9    26    1
    22    26    27   ar
    23    27    28   ar
    24    28    36    1
    25    36    37    1
    26    37    38    1
    27    37    39    1
    28    39    40   ar
    29    40    41   ar
    30    41    42   ar
    31    42    43   ar
    32    43    44   ar
    33    44    45    1
    34    28    29   ar
    35    29    31    1
    36    31    32   am
    37    31    33    2
    38    29    30   ar
    39    12    13   ar
    40    13    14   ar
    41    21    22    1
    42    22    23    1
    43    23    18    1
    44    14    10   ar
    45     6     1   ar
    46    30    26   ar
    47     9     4   ar
    48    44    39   ar
    49    32    34    1
    50    32    35    1
@<TRIPOS>MOLECULE
*****
 45 50 0 0 0
SMALL
GASTEIGER

@<TRIPOS>ATOM
      1 C          59.8565   89.3409    7.4792 C.ar    1  UNL1        0.0046
      2 C          59.9036   87.8417    7.4741 C.ar    1  UNL1        0.0017
      3 C          60.6305   87.1105    8.5636 C.ar    1  UNL1        0.0191
      4 C          61.3103   87.8786    9.6581 C.ar    1  UNL1        0.0835
      5 C          61.2632   89.3778    9.6631 C.ar    1  UNL1        0.0991
      6 C          60.5363   90.1089    8.5737 C.ar    1  UNL1        0.0207
      7 N          62.0211   89.8613   10.8639 N.ar    1  UNL1       -0.2236
      8 C          62.5366   88.6609   11.6010 C.ar    1  UNL1        0.1831
      9 N          62.0973   87.4355   10.8558 N.ar    1  UNL1       -0.2823
     10 N          58.6648   91.4494    4.4461 N.ar    1  UNL1       -0.2494
     11 C          59.7603   90.9098    5.3171 C.ar    1  UNL1        0.0966
     12 C          59.1295   90.0721    6.3897 C.ar    1  UNL1        0.0397
     13 C          57.6442   90.0941    6.1816 C.ar    1  UNL1        0.1216
     14 N          57.3569   90.9453    4.9804 N.ar    1  UNL1       -0.1677
     15 C          58.8454   92.3373    3.2506 C.3     1  UNL1        0.1289
     16 C          60.1627   93.0134    3.0107 C.3     1  UNL1        0.0437
     17 C          60.7165   93.1049    1.6197 C.3     1  UNL1        0.0742
     18 N          57.9890   94.0610   -1.8294 N.3     1  UNL1       -0.2703
     19 C          58.3378   95.1254   -0.8318 C.3     1  UNL1        0.0897
     20 C          59.2470   94.8067    0.3180 C.3     1  UNL1        0.0897
     21 N          59.8073   93.4236    0.4700 N.3     1  UNL1       -0.2703
     22 C          59.4585   92.3593   -0.5277 C.3     1  UNL1        0.0897
     23 C          58.5494   92.6779   -1.6775 C.3     1  UNL1        0.0897
     24 C          55.6127   94.5820   -2.7415 C.3     1  UNL1        0.0188
     25 C          57.0798   94.3798   -2.9792 C.3     1  UNL1        0.0722
     26 C          62.3931   86.0162   11.2406 C.ar    1  UNL1        0.0987
     27 C          62.1580   85.4008   12.5882 C.ar    1  UNL1        0.0619
     28 C          62.5955   83.9674   12.5259 C.ar    1  UNL1        0.1512
     29 C          63.1009   83.6968   11.1398 C.ar    1  UNL1        0.1178
     30 S          62.9758   84.9630   10.3454 S.2     1  UNL1       -0.0618
     31 C          63.6372   82.3895   10.6365 C.2     1  UNL1        0.2518
     32 N          63.0009   81.1017   11.0684 N.am    1  UNL1       -0.3248
     33 O          64.8097   82.3702    9.7012 O.2     1  UNL1       -0.2697
     34 H          62.2314   81.1144   11.6823 H       1  UNL1        0.1453
     35 H          63.3529   80.2436   10.7381 H       1  UNL1        0.1453
     36 O          62.5377   82.9782   13.6521 O.3     1  UNL1       -0.4740
     37 C          63.3311   83.2179   14.9023 C.3     1  UNL1        0.1891
     38 C          64.1955   82.1275   15.4625 C.3     1  UNL1        0.0523
     39 C          63.2602   84.5479   15.5922 C.ar    1  UNL1        0.0278
     40 C          62.1542   84.8299   16.5655 C.ar    1  UNL1        0.0000
     41 C          62.0832   86.1599   17.2554 C.ar    1  UNL1       -0.0002
     42 C          63.1182   87.2079   16.9721 C.ar    1  UNL1        0.0008
     43 C          64.2243   86.9260   15.9988 C.ar    1  UNL1        0.0112
     44 C          64.2952   85.5960   15.3089 C.ar    1  UNL1        0.0570
     45 CL         65.4012   85.3140   14.3357 Cl      1  UNL1       -0.0825
@<TRIPOS>BOND
     1    24    25    1
     2    25    18    1
     3    18    19    1
     4    19    20    1
     5    20    21    1
     6    21    17    1
     7    17    16    1
     8    16    15    1
     9    15    10    1
    10    10    11   ar
    11    11    12   ar
    12    12     1    1
    13     1     2   ar
    14     2     3   ar
    15     3     4   ar
    16     4     5   ar
    17     5     6   ar
    18     5     7   ar
    19     7     8   ar
    20     8     9   ar
    21     9    26    1
    22    26    27   ar
    23    27    28   ar
    24    28    36    1
    25    36    37    1
    26    37    38    1
    27    37    39    1
    28    39    40   ar
    29    40    41   ar
    30    41    42   ar
    31    42    43   ar
    32    43    44   ar
    33    44    45    1
    34    28    29   ar
    35    29    31    1
    36    31    32   am
    37    31    33    2
    38    29    30   ar
    39    12    13   ar
    40    13    14   ar
    41    21    22    1
    42    22    23    1
    43    23    18    1
    44    14    10   ar
    45     6     1   ar
    46    30    26   ar
    47     9     4   ar
    48    44    39   ar
    49    32    34    1
    50    32    35    1
@<TRIPOS>MOLECULE
*****
 45 50 0 0 0
SMALL
GASTEIGER

@<TRIPOS>ATOM
      1 C          62.2632   85.5440    9.9678 C.ar    1  UNL1        0.0046
      2 C          61.8297   85.6266    8.5342 C.ar    1  UNL1        0.0017
      3 C          61.1679   86.8712    8.0214 C.ar    1  UNL1        0.0191
      4 C          60.9396   88.0331    8.9421 C.ar    1  UNL1        0.0835
      5 C          61.3731   87.9505   10.3757 C.ar    1  UNL1        0.0991
      6 C          62.0349   86.7060   10.8885 C.ar    1  UNL1        0.0207
      7 N          61.0183   89.2464   11.0426 N.ar    1  UNL1       -0.2236
      8 C          60.3655   90.1299   10.0212 C.ar    1  UNL1        0.1831
      9 N          60.3169   89.3801    8.7230 N.ar    1  UNL1       -0.2823
     10 N          63.5673   82.4502   11.9155 N.ar    1  UNL1       -0.2494
     11 C          62.7054   83.6747   11.8266 C.ar    1  UNL1        0.0966
     12 C          62.9250   84.2994   10.4808 C.ar    1  UNL1        0.0397
     13 C          63.9227   83.4611    9.7378 C.ar    1  UNL1        0.1216
     14 N          64.3197   82.3183   10.6245 N.ar    1  UNL1       -0.1677
     15 C          63.6605   81.5209   13.0893 C.3     1  UNL1        0.1289
     16 C          63.4635   82.0472   14.4800 C.3     1  UNL1        0.0437
     17 C          64.4880   82.9575   15.0897 C.3     1  UNL1        0.0742
     18 N          63.3613   87.1571   16.2486 N.3     1  UNL1       -0.2703
     19 C          64.4084   86.9238   15.2002 C.3     1  UNL1        0.0897
     20 C          64.7840   85.5238   14.8139 C.3     1  UNL1        0.0897
     21 N          64.1125   84.3573   15.4760 N.3     1  UNL1       -0.2703
     22 C          63.0654   84.5908   16.5243 C.3     1  UNL1        0.0897
     23 C          62.6898   85.9906   16.9107 C.3     1  UNL1        0.0897
     24 C          63.4053   89.7110   15.7733 C.3     1  UNL1        0.0188
     25 C          62.9857   88.5571   16.6349 C.3     1  UNL1        0.0722
     26 C          59.7458   89.8880    7.4323 C.ar    1  UNL1        0.0987
     27 C          60.5262   90.2375    6.1999 C.ar    1  UNL1        0.0619
     28 C          59.5567   90.7010    5.1533 C.ar    1  UNL1        0.1512
     29 C          58.1772   90.6380    5.7388 C.ar    1  UNL1        0.1178
     30 S          58.2940   90.1355    7.1473 S.2     1  UNL1       -0.0618
     31 C          56.9043   91.0118    5.0388 C.2     1  UNL1        0.2518
     32 N          56.9475   91.8841    3.8192 N.am    1  UNL1       -0.3248
     33 O          55.5884   90.5133    5.5583 O.2     1  UNL1       -0.2697
     34 H          57.8112   92.2112    3.4783 H       1  UNL1        0.1453
     35 H          56.1121   92.1295    3.3597 H       1  UNL1        0.1453
     36 O          59.9056   91.1490    3.7649 O.3     1  UNL1       -0.4740
     37 C          60.2776   92.5796    3.5098 C.3     1  UNL1        0.1891
     38 C          59.5958   93.6787    4.2696 C.3     1  UNL1        0.0523
     39 C          61.3313   92.9111    2.4950 C.ar    1  UNL1        0.0278
     40 C          61.0472   93.9186    1.4206 C.ar    1  UNL1        0.0000
     41 C          62.1009   94.2502    0.4058 C.ar    1  UNL1       -0.0002
     42 C          63.4386   93.5743    0.4654 C.ar    1  UNL1        0.0008
     43 C          63.7227   92.5667    1.5397 C.ar    1  UNL1        0.0112
     44 C          62.6690   92.2352    2.5545 C.ar    1  UNL1        0.0570
     45 CL         62.9531   91.2277    3.6289 Cl      1  UNL1       -0.0825
@<TRIPOS>BOND
     1    24    25    1
     2    25    18    1
     3    18    19    1
     4    19    20    1
     5    20    21    1
     6    21    17    1
     7    17    16    1
     8    16    15    1
     9    15    10    1
    10    10    11   ar
    11    11    12   ar
    12    12     1    1
    13     1     2   ar
    14     2     3   ar
    15     3     4   ar
    16     4     5   ar
    17     5     6   ar
    18     5     7   ar
    19     7     8   ar
    20     8     9   ar
    21     9    26    1
    22    26    27   ar
    23    27    28   ar
    24    28    36    1
    25    36    37    1
    26    37    38    1
    27    37    39    1
    28    39    40   ar
    29    40    41   ar
    30    41    42   ar
    31    42    43   ar
    32    43    44   ar
    33    44    45    1
    34    28    29   ar
    35    29    31    1
    36    31    32   am
    37    31    33    2
    38    29    30   ar
    39    12    13   ar
    40    13    14   ar
    41    21    22    1
    42    22    23    1
    43    23    18    1
    44    14    10   ar
    45     6     1   ar
    46    30    26   ar
    47     9     4   ar
    48    44    39   ar
    49    32    34    1
    50    32    35    1
@<TRIPOS>MOLECULE
*****
 45 50 0 0 0
SMALL
GASTEIGER

@<TRIPOS>ATOM
      1 C          62.9432   84.6240   11.2673 C.ar    1  UNL1        0.0046
      2 C          63.8357   85.2475   12.2991 C.ar    1  UNL1        0.0017
      3 C          63.7799   86.7263   12.5438 C.ar    1  UNL1        0.0191
      4 C          62.8318   87.5816   11.7568 C.ar    1  UNL1        0.0835
      5 C          61.9393   86.9581   10.7250 C.ar    1  UNL1        0.0991
      6 C          61.9950   85.4793   10.4803 C.ar    1  UNL1        0.0207
      7 N          61.1123   88.0471   10.1085 N.ar    1  UNL1       -0.2236
      8 C          61.4936   89.3436   10.7592 C.ar    1  UNL1        0.1831
      9 N          62.5563   89.0560   11.7779 N.ar    1  UNL1       -0.2823
     10 N          62.7542   80.7473   11.3079 N.ar    1  UNL1       -0.2494
     11 C          62.4970   82.0784   11.9500 C.ar    1  UNL1        0.0966
     12 C          62.9988   83.1451   11.0225 C.ar    1  UNL1        0.0397
     13 C          63.5661   82.4733    9.8072 C.ar    1  UNL1        0.1216
     14 N          63.4149   80.9914    9.9835 N.ar    1  UNL1       -0.1677
     15 C          62.4108   79.4074   11.8883 C.3     1  UNL1        0.1289
     16 C          62.3590   79.2256   13.3763 C.3     1  UNL1        0.0437
     17 C          61.6331   80.2236   14.2290 C.3     1  UNL1        0.0742
     18 N          63.6447   84.0783   15.3882 N.3     1  UNL1       -0.2703
     19 C          62.1516   84.0219   15.2558 C.3     1  UNL1        0.0897
     20 C          61.4811   82.7369   14.8693 C.3     1  UNL1        0.0897
     21 N          62.3036   81.5085   14.6154 N.3     1  UNL1       -0.2703
     22 C          63.7966   81.5650   14.7478 C.3     1  UNL1        0.0897
     23 C          64.4673   82.8499   15.1342 C.3     1  UNL1        0.0897
     24 C          63.5123   86.4751   16.3822 C.3     1  UNL1        0.0188
     25 C          64.3153   85.3633   15.7746 C.3     1  UNL1        0.0722
     26 C          63.2261   90.0655   12.6625 C.ar    1  UNL1        0.0987
     27 C          64.0751   91.2139   12.2041 C.ar    1  UNL1        0.0619
     28 C          64.5381   91.9619   13.4190 C.ar    1  UNL1        0.1512
     29 C          63.9753   91.2758   14.6283 C.ar    1  UNL1        0.1178
     30 S          63.1644   90.1037   14.1607 S.2     1  UNL1       -0.0618
     31 C          64.1863   91.6891   16.0547 C.2     1  UNL1        0.2518
     32 N          65.2393   92.7021   16.3940 N.am    1  UNL1       -0.3248
     33 O          63.3443   91.0895   17.1417 O.2     1  UNL1       -0.2697
     34 H          65.7919   93.0956   15.6805 H       1  UNL1        0.1453
     35 H          65.3779   92.9734   17.3302 H       1  UNL1        0.1453
     36 O          65.4108   93.1820   13.4239 O.3     1  UNL1       -0.4740
     37 C          66.8458   93.0792   12.9994 C.3     1  UNL1        0.1891
     38 C          67.9127   92.8148   14.0201 C.3     1  UNL1        0.0523
     39 C          67.2140   93.2408   11.5542 C.ar    1  UNL1        0.0278
     40 C          67.9260   92.1347   10.8335 C.ar    1  UNL1        0.0000
     41 C          68.2941   92.2964    9.3884 C.ar    1  UNL1       -0.0002
     42 C          67.9503   93.5640    8.6641 C.ar    1  UNL1        0.0008
     43 C          67.2383   94.6702    9.3848 C.ar    1  UNL1        0.0112
     44 C          66.8701   94.5086   10.8299 C.ar    1  UNL1        0.0570
     45 CL         66.1581   95.6147   11.5507 Cl      1  UNL1       -0.0825
@<TRIPOS>BOND
     1    24    25    1
     2    25    18    1
     3    18    19    1
     4    19    20    1
     5    20    21    1
     6    21    17    1
     7    17    16    1
     8    16    15    1
     9    15    10    1
    10    10    11   ar
    11    11    12   ar
    12    12     1    1
    13     1     2   ar
    14     2     3   ar
    15     3     4   ar
    16     4     5   ar
    17     5     6   ar
    18     5     7   ar
    19     7     8   ar
    20     8     9   ar
    21     9    26    1
    22    26    27   ar
    23    27    28   ar
    24    28    36    1
    25    36    37    1
    26    37    38    1
    27    37    39    1
    28    39    40   ar
    29    40    41   ar
    30    41    42   ar
    31    42    43   ar
    32    43    44   ar
    33    44    45    1
    34    28    29   ar
    35    29    31    1
    36    31    32   am
    37    31    33    2
    38    29    30   ar
    39    12    13   ar
    40    13    14   ar
    41    21    22    1
    42    22    23    1
    43    23    18    1
    44    14    10   ar
    45     6     1   ar
    46    30    26   ar
    47     9     4   ar
    48    44    39   ar
    49    32    34    1
    50    32    35    1
