@<TRIPOS>MOLECULE
*****
 17 18 0 0 0
SMALL
GASTEIGER

@<TRIPOS>ATOM
      1 C          63.6868   83.7734   10.7972 C.ar    1  UNL1        0.1386
      2 C          62.7002   84.5007   11.6620 C.ar    1  UNL1        0.0369
      3 C          61.8105   85.5505   11.0650 C.ar    1  UNL1        0.0046
      4 C          61.9074   85.8731    9.6034 C.ar    1  UNL1        0.0175
      5 C          62.8940   85.1459    8.7387 C.ar    1  UNL1        0.0046
      6 C          63.7836   84.0961    9.3356 C.ar    1  UNL1        0.0369
      7 C          61.0177   86.9230    9.0065 C.ar    1  UNL1        0.0795
      8 C          59.8967   86.6828    8.0392 C.ar    1  UNL1        0.0412
      9 C          59.2790   88.0087    7.7069 C.ar    1  UNL1        0.1217
     10 N          60.0183   89.0684    8.4689 N.ar    1  UNL1       -0.1676
     11 N          61.0929   88.3974    9.2720 N.ar    1  UNL1       -0.2488
     12 C          62.0709   89.0808   10.1811 C.3     1  UNL1        0.1537
     13 O          64.5764   82.7236   11.3941 O.3     1  UNL1       -0.4755
     14 C          64.0663   81.8489   12.5007 C.3     1  UNL1        0.2054
     15 C          62.9284   80.9050   12.2467 C.3     1  UNL1        0.0473
     16 C          61.1344   81.0345   14.1215 C.3     1  UNL1        0.0001
     17 C          62.2065   80.2731   13.3998 C.3     1  UNL1        0.0038
@<TRIPOS>BOND
     1    16    17    1
     2    17    15    1
     3    15    14    1
     4    14    13    1
     5    13     1    1
     6     1     2   ar
     7     2     3   ar
     8     3     4   ar
     9     4     7    1
    10     7     8   ar
    11     8     9   ar
    12     9    10   ar
    13    10    11   ar
    14    11    12    1
    15     4     5   ar
    16     5     6   ar
    17     6     1   ar
    18    11     7   ar
@<TRIPOS>MOLECULE
*****
 17 18 0 0 0
SMALL
GASTEIGER

@<TRIPOS>ATOM
      1 C          63.6910   83.6469   10.6872 C.ar    1  UNL1        0.1386
      2 C          63.6920   84.0881    9.2535 C.ar    1  UNL1        0.0369
      3 C          62.9309   85.3146    8.8457 C.ar    1  UNL1        0.0046
      4 C          62.1687   86.0999    9.8715 C.ar    1  UNL1        0.0175
      5 C          62.1677   85.6588   11.3051 C.ar    1  UNL1        0.0046
      6 C          62.9289   84.4323   11.7129 C.ar    1  UNL1        0.0369
      7 C          61.4076   87.3264    9.4636 C.ar    1  UNL1        0.0795
      8 C          61.6302   88.7158    9.9834 C.ar    1  UNL1        0.0412
      9 C          60.6504   89.6270    9.3054 C.ar    1  UNL1        0.1217
     10 N          59.8221   88.8008    8.3666 N.ar    1  UNL1       -0.1676
     11 N          60.2901   87.3790    8.4644 N.ar    1  UNL1       -0.2488
     12 C          59.7376   86.2142    7.6975 C.3     1  UNL1        0.1537
     13 O          64.4522   82.4204   11.0950 O.3     1  UNL1       -0.4755
     14 C          64.1195   81.7245   12.3815 C.3     1  UNL1        0.2054
     15 C          62.9298   80.8141   12.4558 C.3     1  UNL1        0.0473
     16 C          62.0157   82.1550   14.4847 C.3     1  UNL1        0.0001
     17 C          61.8370   81.0873   13.4464 C.3     1  UNL1        0.0038
@<TRIPOS>BOND
     1    16    17    1
     2    17    15    1
     3    15    14    1
     4    14    13    1
     5    13     1    1
     6     1     2   ar
     7     2     3   ar
     8     3     4   ar
     9     4     7    1
    10     7     8   ar
    11     8     9   ar
    12     9    10   ar
    13    10    11   ar
    14    11    12    1
    15     4     5   ar
    16     5     6   ar
    17     6     1   ar
    18    11     7   ar
@<TRIPOS>MOLECULE
*****
 17 18 0 0 0
SMALL
GASTEIGER

@<TRIPOS>ATOM
      1 C          63.9259   90.9416   13.7213 C.ar    1  UNL1        0.1386
      2 C          65.2712   91.4046   14.1966 C.ar    1  UNL1        0.0369
      3 C          66.2302   92.0377   13.2325 C.ar    1  UNL1        0.0046
      4 C          65.8440   92.2078   11.7931 C.ar    1  UNL1        0.0175
      5 C          64.4988   91.7449   11.3178 C.ar    1  UNL1        0.0046
      6 C          63.5397   91.1118   12.2819 C.ar    1  UNL1        0.0369
      7 C          66.8031   92.8409   10.8291 C.ar    1  UNL1        0.0795
      8 C          67.8185   92.1193    9.9934 C.ar    1  UNL1        0.0412
      9 C          68.5581   93.1392    9.1793 C.ar    1  UNL1        0.1217
     10 N          67.9998   94.4912    9.5117 N.ar    1  UNL1       -0.1676
     11 N          66.9152   94.3068   10.5313 N.ar    1  UNL1       -0.2488
     12 C          66.0878   95.3970   11.1454 C.3     1  UNL1        0.1537
     13 O          62.9669   90.3086   14.6853 O.3     1  UNL1       -0.4755
     14 C          63.4712   89.7304   15.9742 C.3     1  UNL1        0.2054
     15 C          63.4024   88.2507   16.2102 C.3     1  UNL1        0.0473
     16 C          62.7089   86.2407   17.7033 C.3     1  UNL1        0.0001
     17 C          62.8148   87.7209   17.4847 C.3     1  UNL1        0.0038
@<TRIPOS>BOND
     1    16    17    1
     2    17    15    1
     3    15    14    1
     4    14    13    1
     5    13     1    1
     6     1     2   ar
     7     2     3   ar
     8     3     4   ar
     9     4     7    1
    10     7     8   ar
    11     8     9   ar
    12     9    10   ar
    13    10    11   ar
    14    11    12    1
    15     4     5   ar
    16     5     6   ar
    17     6     1   ar
    18    11     7   ar
@<TRIPOS>MOLECULE
*****
 17 18 0 0 0
SMALL
GASTEIGER

@<TRIPOS>ATOM
      1 C          64.1175   91.0258   13.8427 C.ar    1  UNL1        0.1386
      2 C          65.4618   91.5426   14.2618 C.ar    1  UNL1        0.0369
      3 C          66.3646   92.1888   13.2532 C.ar    1  UNL1        0.0046
      4 C          65.9231   92.3182   11.8255 C.ar    1  UNL1        0.0175
      5 C          64.5788   91.8014   11.4064 C.ar    1  UNL1        0.0046
      6 C          63.6760   91.1552   12.4150 C.ar    1  UNL1        0.0369
      7 C          66.8260   92.9644   10.8169 C.ar    1  UNL1        0.0795
      8 C          67.7941   92.2546    9.9175 C.ar    1  UNL1        0.0412
      9 C          68.4857   93.2854    9.0753 C.ar    1  UNL1        0.1217
     10 N          67.9450   94.6322    9.4542 N.ar    1  UNL1       -0.1676
     11 N          66.9192   94.4338   10.5305 N.ar    1  UNL1       -0.2488
     12 C          66.1260   95.5151   11.2025 C.3     1  UNL1        0.1537
     13 O          63.2146   90.3796   14.8513 O.3     1  UNL1       -0.4755
     14 C          63.6124   89.0830   15.4921 C.3     1  UNL1        0.2054
     15 C          64.3213   88.0348   14.6866 C.3     1  UNL1        0.0473
     16 C          64.1364   85.4919   14.1870 C.3     1  UNL1        0.0001
     17 C          64.3453   86.6123   15.1622 C.3     1  UNL1        0.0038
@<TRIPOS>BOND
     1    16    17    1
     2    17    15    1
     3    15    14    1
     4    14    13    1
     5    13     1    1
     6     1     2   ar
     7     2     3   ar
     8     3     4   ar
     9     4     7    1
    10     7     8   ar
    11     8     9   ar
    12     9    10   ar
    13    10    11   ar
    14    11    12    1
    15     4     5   ar
    16     5     6   ar
    17     6     1   ar
    18    11     7   ar
@<TRIPOS>MOLECULE
*****
 17 18 0 0 0
SMALL
GASTEIGER

@<TRIPOS>ATOM
      1 C          63.1767   89.6792   12.6513 C.ar    1  UNL1        0.1386
      2 C          63.6277   90.9651   12.0243 C.ar    1  UNL1        0.0369
      3 C          64.7565   91.7417   12.6348 C.ar    1  UNL1        0.0046
      4 C          65.4343   91.2325   13.8722 C.ar    1  UNL1        0.0175
      5 C          64.9832   89.9466   14.4992 C.ar    1  UNL1        0.0046
      6 C          63.8545   89.1700   13.8887 C.ar    1  UNL1        0.0369
      7 C          66.5630   92.0091   14.4827 C.ar    1  UNL1        0.0795
      8 C          66.5333   92.7153   15.8058 C.ar    1  UNL1        0.0412
      9 C          67.8717   93.3585   16.0181 C.ar    1  UNL1        0.1217
     10 N          68.7285   93.0499   14.8262 N.ar    1  UNL1       -0.1676
     11 N          67.9198   92.2160   13.8773 N.ar    1  UNL1       -0.2488
     12 C          68.3860   91.6825   12.5552 C.3     1  UNL1        0.1537
     13 O          62.0479   88.9026   12.0408 O.3     1  UNL1       -0.4755
     14 C          62.1736   88.3688   10.6447 C.3     1  UNL1        0.2054
     15 C          62.0008   86.9017   10.3842 C.3     1  UNL1        0.0473
     16 C          63.0233   85.4243    8.5076 C.3     1  UNL1        0.0001
     17 C          61.9735   86.3883    8.9751 C.3     1  UNL1        0.0038
@<TRIPOS>BOND
     1    16    17    1
     2    17    15    1
     3    15    14    1
     4    14    13    1
     5    13     1    1
     6     1     2   ar
     7     2     3   ar
     8     3     4   ar
     9     4     7    1
    10     7     8   ar
    11     8     9   ar
    12     9    10   ar
    13    10    11   ar
    14    11    12    1
    15     4     5   ar
    16     5     6   ar
    17     6     1   ar
    18    11     7   ar
@<TRIPOS>MOLECULE
*****
 17 18 0 0 0
SMALL
GASTEIGER

@<TRIPOS>ATOM
      1 C          63.0818   90.2922   11.9648 C.ar    1  UNL1        0.1386
      2 C          63.0532   90.7730   10.5443 C.ar    1  UNL1        0.0369
      3 C          63.9990   91.8481   10.0972 C.ar    1  UNL1        0.0046
      4 C          64.9733   92.4422   11.0706 C.ar    1  UNL1        0.0175
      5 C          65.0019   91.9614   12.4911 C.ar    1  UNL1        0.0046
      6 C          64.0562   90.8863   12.9382 C.ar    1  UNL1        0.0369
      7 C          65.9190   93.5173   10.6235 C.ar    1  UNL1        0.0795
      8 C          65.6567   94.9937   10.6604 C.ar    1  UNL1        0.0412
      9 C          66.8687   95.6935   10.1207 C.ar    1  UNL1        0.1217
     10 N          67.8801   94.6496    9.7502 N.ar    1  UNL1       -0.1676
     11 N          67.2932   93.3046   10.0610 N.ar    1  UNL1       -0.2488
     12 C          67.9630   91.9796    9.8468 C.3     1  UNL1        0.1537
     13 O          62.1361   89.2172   12.4119 O.3     1  UNL1       -0.4755
     14 C          61.2900   88.4962   11.4048 C.3     1  UNL1        0.2054
     15 C          61.7626   87.1983   10.8198 C.3     1  UNL1        0.0473
     16 C          62.5804   85.8217    8.7738 C.3     1  UNL1        0.0001
     17 C          62.0154   87.0882    9.3453 C.3     1  UNL1        0.0038
@<TRIPOS>BOND
     1    16    17    1
     2    17    15    1
     3    15    14    1
     4    14    13    1
     5    13     1    1
     6     1     2   ar
     7     2     3   ar
     8     3     4   ar
     9     4     7    1
    10     7     8   ar
    11     8     9   ar
    12     9    10   ar
    13    10    11   ar
    14    11    12    1
    15     4     5   ar
    16     5     6   ar
    17     6     1   ar
    18    11     7   ar
@<TRIPOS>MOLECULE
*****
 17 18 0 0 0
SMALL
GASTEIGER

@<TRIPOS>ATOM
      1 C          64.7366   91.7830   12.6780 C.ar    1  UNL1        0.1386
      2 C          64.1724   90.6333   13.4589 C.ar    1  UNL1        0.0369
      3 C          63.2238   89.6745   12.8025 C.ar    1  UNL1        0.0046
      4 C          62.8394   89.8654   11.3653 C.ar    1  UNL1        0.0175
      5 C          63.4035   91.0151   10.5844 C.ar    1  UNL1        0.0046
      6 C          64.3522   91.9739   11.2407 C.ar    1  UNL1        0.0369
      7 C          61.8907   88.9066   10.7089 C.ar    1  UNL1        0.0795
      8 C          62.2700   87.7681    9.8089 C.ar    1  UNL1        0.0412
      9 C          61.0099   87.0758    9.3811 C.ar    1  UNL1        0.1217
     10 N          59.8519   87.7864   10.0168 N.ar    1  UNL1       -0.1676
     11 N          60.3963   88.9178   10.8374 N.ar    1  UNL1       -0.2488
     12 C          59.5881   89.8899   11.6448 C.3     1  UNL1        0.1537
     13 O          65.6852   92.7418   13.3343 O.3     1  UNL1       -0.4755
     14 C          66.1297   92.5079   14.7477 C.3     1  UNL1        0.2054
     15 C          67.3598   91.6945   15.0223 C.3     1  UNL1        0.0473
     16 C          68.5623   93.8146   15.9218 C.3     1  UNL1        0.0001
     17 C          68.5654   92.3420   15.6365 C.3     1  UNL1        0.0038
@<TRIPOS>BOND
     1    16    17    1
     2    17    15    1
     3    15    14    1
     4    14    13    1
     5    13     1    1
     6     1     2   ar
     7     2     3   ar
     8     3     4   ar
     9     4     7    1
    10     7     8   ar
    11     8     9   ar
    12     9    10   ar
    13    10    11   ar
    14    11    12    1
    15     4     5   ar
    16     5     6   ar
    17     6     1   ar
    18    11     7   ar
@<TRIPOS>MOLECULE
*****
 17 18 0 0 0
SMALL
GASTEIGER

@<TRIPOS>ATOM
      1 C          62.3328   86.4320    9.9448 C.ar    1  UNL1        0.1386
      2 C          61.8907   86.4158   11.3780 C.ar    1  UNL1        0.0369
      3 C          62.1188   85.1952   12.2195 C.ar    1  UNL1        0.0046
      4 C          62.7889   83.9908   11.6277 C.ar    1  UNL1        0.0175
      5 C          63.2309   84.0070   10.1944 C.ar    1  UNL1        0.0046
      6 C          63.0029   85.2276    9.3530 C.ar    1  UNL1        0.0369
      7 C          63.0169   82.7701   12.4691 C.ar    1  UNL1        0.0795
      8 C          62.4592   81.4024   12.2079 C.ar    1  UNL1        0.0412
      9 C          62.9402   80.4898   13.2969 C.ar    1  UNL1        0.1217
     10 N          63.7953   81.2936   14.2311 N.ar    1  UNL1       -0.1676
     11 N          63.8427   82.7029   13.7195 N.ar    1  UNL1       -0.2488
     12 C          64.5854   83.8445   14.3481 C.3     1  UNL1        0.1537
     13 O          62.1048   87.6527    9.1033 O.3     1  UNL1       -0.4755
     14 C          60.8547   88.4626    9.2800 C.3     1  UNL1        0.2054
     15 C          59.7909   88.4402    8.2227 C.3     1  UNL1        0.0473
     16 C          59.8482   85.9547    7.4681 C.3     1  UNL1        0.0001
     17 C          59.0730   87.1612    7.9081 C.3     1  UNL1        0.0038
@<TRIPOS>BOND
     1    16    17    1
     2    17    15    1
     3    15    14    1
     4    14    13    1
     5    13     1    1
     6     1     2   ar
     7     2     3   ar
     8     3     4   ar
     9     4     7    1
    10     7     8   ar
    11     8     9   ar
    12     9    10   ar
    13    10    11   ar
    14    11    12    1
    15     4     5   ar
    16     5     6   ar
    17     6     1   ar
    18    11     7   ar
@<TRIPOS>MOLECULE
*****
 17 18 0 0 0
SMALL
GASTEIGER

@<TRIPOS>ATOM
      1 C          62.0966   89.0593   11.4244 C.ar    1  UNL1        0.1386
      2 C          62.9161   89.2411   12.6675 C.ar    1  UNL1        0.0369
      3 C          63.8994   90.3701   12.7592 C.ar    1  UNL1        0.0046
      4 C          64.0631   91.3174   11.6078 C.ar    1  UNL1        0.0175
      5 C          63.2436   91.1356   10.3647 C.ar    1  UNL1        0.0046
      6 C          62.2604   90.0066   10.2730 C.ar    1  UNL1        0.0369
      7 C          65.0464   92.4464   11.6994 C.ar    1  UNL1        0.0795
      8 C          65.3916   93.4065   10.5998 C.ar    1  UNL1        0.0412
      9 C          66.4157   94.3671   11.1276 C.ar    1  UNL1        0.1217
     10 N          66.7034   94.0007   12.5534 N.ar    1  UNL1       -0.1676
     11 N          65.8572   92.8137   12.9068 N.ar    1  UNL1       -0.2488
     12 C          65.8270   92.1164   14.2345 C.3     1  UNL1        0.1537
     13 O          61.1133   87.9302   11.3328 O.3     1  UNL1       -0.4755
     14 C          60.3988   87.6609   10.0417 C.3     1  UNL1        0.2054
     15 C          60.8490   86.5375    9.1555 C.3     1  UNL1        0.0473
     16 C          62.9839   85.3511    8.2698 C.3     1  UNL1        0.0001
     17 C          62.1590   85.8550    9.4167 C.3     1  UNL1        0.0038
@<TRIPOS>BOND
     1    16    17    1
     2    17    15    1
     3    15    14    1
     4    14    13    1
     5    13     1    1
     6     1     2   ar
     7     2     3   ar
     8     3     4   ar
     9     4     7    1
    10     7     8   ar
    11     8     9   ar
    12     9    10   ar
    13    10    11   ar
    14    11    12    1
    15     4     5   ar
    16     5     6   ar
    17     6     1   ar
    18    11     7   ar
