@<TRIPOS>MOLECULE
*****
 28 30 0 0 0
SMALL
GASTEIGER

@<TRIPOS>ATOM
      1 C          65.0753   91.0161   14.0857 C.ar    1  UNL1        0.0749
      2 C          64.1093   90.2601   14.9489 C.ar    1  UNL1        0.1097
      3 N          62.7622   89.8786   14.4106 N.ar    1  UNL1       -0.2283
      4 C          62.3811   90.2532   13.0090 C.ar    1  UNL1        0.1345
      5 C          63.3471   91.0092   12.1458 C.ar    1  UNL1        0.0494
      6 C          64.6942   91.3907   12.6842 C.ar    1  UNL1        0.0568
      7 C          67.7695   91.7790   15.1624 C.1     1  UNL1       -0.0091
      8 C          66.4224   91.3975   14.6241 C.1     1  UNL1       -0.0484
      9 N          61.0340   89.8717   12.4707 N.pl3   1  UNL1       -0.2821
     10 H          60.2186   90.2533   12.8691 H       1  UNL1        0.1551
     11 C          60.9293   88.9089   11.3253 C.ar    1  UNL1        0.1527
     12 C          60.5492   89.4042    9.9614 C.ar    1  UNL1        0.1340
     13 N          60.4444   88.4414    8.8160 N.ar    1  UNL1       -0.2290
     14 C          60.7198   86.9832    9.0344 C.ar    1  UNL1        0.1683
     15 C          61.0999   86.4878   10.3983 C.ar    1  UNL1        0.1299
     16 N          61.2046   87.4506   11.5437 N.ar    1  UNL1       -0.2251
     17 C          60.6150   86.0203    7.8890 C.1     1  UNL1        0.1214
     18 N          60.5103   85.0575    6.7436 N.1     1  UNL1       -0.1892
     19 N          65.6603   92.1467   11.8209 N.pl3   1  UNL1       -0.3301
     20 H          66.1391   91.6837   11.0959 H       1  UNL1        0.1469
     21 C          65.8966   93.6082   12.0621 C.3     1  UNL1        0.1185
     22 C          66.3828   94.4837   10.9453 C.3     1  UNL1        0.1503
     23 C          66.2927   95.9759   11.0686 C.3     1  UNL1        0.1003
     24 N          66.7789   96.8515    9.9519 N.3     1  UNL1       -0.2933
     25 C          67.3550   96.2348    8.7119 C.3     1  UNL1        0.1011
     26 C          67.4450   94.7426    8.5886 C.3     1  UNL1        0.1592
     27 O          66.9589   93.8670    9.7053 O.3     1  UNL1       -0.3516
     28 H          67.5019   97.4546   10.3441 H       1  UNL1        0.1234
@<TRIPOS>BOND
     1     7     8    3
     2     8     1    1
     3     1     2   ar
     4     2     3   ar
     5     3     4   ar
     6     4     9    1
     7     9    11    1
     8    11    12   ar
     9    12    13   ar
    10    13    14   ar
    11    14    17    1
    12    17    18    3
    13    14    15   ar
    14    15    16   ar
    15     4     5   ar
    16     5     6   ar
    17     6    19    1
    18    19    21    1
    19    22    21    1
    20    22    23    1
    21    23    24    1
    22    24    25    1
    23    25    26    1
    24    26    27    1
    25     6     1   ar
    26    27    22    1
    27    16    11   ar
    28     9    10    1
    29    19    20    1
    30    24    28    1
@<TRIPOS>MOLECULE
*****
 28 30 0 0 0
SMALL
GASTEIGER

@<TRIPOS>ATOM
      1 C          61.4726   86.7155    9.0380 C.ar    1  UNL1        0.0749
      2 C          60.8646   88.0665    8.8041 C.ar    1  UNL1        0.1097
      3 N          60.7982   89.0631    9.9232 N.ar    1  UNL1       -0.2283
      4 C          61.3399   88.7087   11.2762 C.ar    1  UNL1        0.1345
      5 C          61.9479   87.3576   11.5102 C.ar    1  UNL1        0.0494
      6 C          62.0143   86.3610   10.3911 C.ar    1  UNL1        0.0568
      7 C          61.6053   84.7222    6.7999 C.1     1  UNL1       -0.0091
      8 C          61.5389   85.7188    7.9189 C.1     1  UNL1       -0.0484
      9 N          61.2735   89.7053   12.3953 N.pl3   1  UNL1       -0.2821
     10 H          60.4008   90.0356   12.7092 H       1  UNL1        0.1551
     11 C          62.5368   90.1986   13.0362 C.ar    1  UNL1        0.1527
     12 C          63.5386   90.9665   12.2258 C.ar    1  UNL1        0.1340
     13 N          64.8019   91.4598   12.8667 N.ar    1  UNL1       -0.2290
     14 C          65.0634   91.1852   14.3180 C.ar    1  UNL1        0.1683
     15 C          64.0617   90.4173   15.1284 C.ar    1  UNL1        0.1299
     16 N          62.7983   89.9240   14.4875 N.ar    1  UNL1       -0.2251
     17 C          66.3268   91.6785   14.9589 C.1     1  UNL1        0.1214
     18 N          67.5901   92.1718   15.5997 N.1     1  UNL1       -0.1892
     19 N          62.6224   85.0098   10.6252 N.pl3   1  UNL1       -0.3301
     20 H          62.6441   84.3470    9.8975 H       1  UNL1        0.1469
     21 C          63.1974   84.6685   11.9678 C.3     1  UNL1        0.1185
     22 C          62.9063   83.3357   12.5916 C.3     1  UNL1        0.1503
     23 C          62.5620   83.2489   14.0490 C.3     1  UNL1        0.1003
     24 N          62.2709   81.9162   14.6728 N.3     1  UNL1       -0.2933
     25 C          62.3241   80.6704   13.8392 C.3     1  UNL1        0.1011
     26 C          62.6684   80.7572   12.3818 C.3     1  UNL1        0.1592
     27 O          62.9594   82.0899   11.7580 O.3     1  UNL1       -0.3516
     28 H          61.3288   81.9717   15.0597 H       1  UNL1        0.1234
@<TRIPOS>BOND
     1     7     8    3
     2     8     1    1
     3     1     2   ar
     4     2     3   ar
     5     3     4   ar
     6     4     9    1
     7     9    11    1
     8    11    12   ar
     9    12    13   ar
    10    13    14   ar
    11    14    17    1
    12    17    18    3
    13    14    15   ar
    14    15    16   ar
    15     4     5   ar
    16     5     6   ar
    17     6    19    1
    18    19    21    1
    19    22    21    1
    20    22    23    1
    21    23    24    1
    22    24    25    1
    23    25    26    1
    24    26    27    1
    25     6     1   ar
    26    27    22    1
    27    16    11   ar
    28     9    10    1
    29    19    20    1
    30    24    28    1
@<TRIPOS>MOLECULE
*****
 28 30 0 0 0
SMALL
GASTEIGER

@<TRIPOS>ATOM
      1 C          65.1622   91.1639   14.3138 C.ar    1  UNL1        0.0749
      2 C          64.6250   89.8607   14.8266 C.ar    1  UNL1        0.1097
      3 N          63.7031   89.0415   13.9728 N.ar    1  UNL1       -0.2283
      4 C          63.3183   89.5256   12.6063 C.ar    1  UNL1        0.1345
      5 C          63.8554   90.8288   12.0935 C.ar    1  UNL1        0.0494
      6 C          64.7774   91.6480   12.9473 C.ar    1  UNL1        0.0568
      7 C          67.0061   92.8023   16.0214 C.1     1  UNL1       -0.0091
      8 C          66.0841   91.9831   15.1676 C.1     1  UNL1       -0.0484
      9 N          62.3963   88.7064   11.7525 N.pl3   1  UNL1       -0.2821
     10 H          61.7135   89.1501   11.1992 H       1  UNL1        0.1551
     11 C          62.5147   87.2111   11.7416 C.ar    1  UNL1        0.1527
     12 C          61.9578   86.4230   10.5932 C.ar    1  UNL1        0.1340
     13 N          62.0762   84.9277   10.5824 N.ar    1  UNL1       -0.2290
     14 C          62.7514   84.2206   11.7199 C.ar    1  UNL1        0.1683
     15 C          63.3083   85.0086   12.8682 C.ar    1  UNL1        0.1299
     16 N          63.1900   86.5040   12.8791 N.ar    1  UNL1       -0.2251
     17 C          62.8698   82.7252   11.7090 C.1     1  UNL1        0.1214
     18 N          62.9882   81.2300   11.6980 N.1     1  UNL1       -0.1892
     19 N          65.3145   92.9513   12.4344 N.pl3   1  UNL1       -0.3301
     20 H          65.0251   93.7984   12.8441 H       1  UNL1        0.1469
     21 C          66.2927   92.9639   11.2973 C.3     1  UNL1        0.1185
     22 C          66.6548   94.2596   10.6338 C.3     1  UNL1        0.1503
     23 C          67.4558   94.2545    9.3656 C.3     1  UNL1        0.1003
     24 N          67.8180   95.5501    8.7021 N.3     1  UNL1       -0.2933
     25 C          67.3792   96.8507    9.3068 C.3     1  UNL1        0.1011
     26 C          66.5782   96.8558   10.5751 C.3     1  UNL1        0.1592
     27 O          66.2160   95.5602   11.2385 O.3     1  UNL1       -0.3516
     28 H          67.4287   95.5173    7.7599 H       1  UNL1        0.1234
@<TRIPOS>BOND
     1     7     8    3
     2     8     1    1
     3     1     2   ar
     4     2     3   ar
     5     3     4   ar
     6     4     9    1
     7     9    11    1
     8    11    12   ar
     9    12    13   ar
    10    13    14   ar
    11    14    17    1
    12    17    18    3
    13    14    15   ar
    14    15    16   ar
    15     4     5   ar
    16     5     6   ar
    17     6    19    1
    18    19    21    1
    19    22    21    1
    20    22    23    1
    21    23    24    1
    22    24    25    1
    23    25    26    1
    24    26    27    1
    25     6     1   ar
    26    27    22    1
    27    16    11   ar
    28     9    10    1
    29    19    20    1
    30    24    28    1
@<TRIPOS>MOLECULE
*****
 28 30 0 0 0
SMALL
GASTEIGER

@<TRIPOS>ATOM
      1 C          61.2699   87.3810    9.2886 C.ar    1  UNL1        0.0749
      2 C          60.6290   88.7335    9.1892 C.ar    1  UNL1        0.1097
      3 N          60.8644   89.7557   10.2614 N.ar    1  UNL1       -0.2283
      4 C          61.7406   89.4253   11.4331 C.ar    1  UNL1        0.1345
      5 C          62.3815   88.0728   11.5326 C.ar    1  UNL1        0.0494
      6 C          62.1462   87.0507   10.4603 C.ar    1  UNL1        0.0568
      7 C          60.7991   85.3366    7.1441 C.1     1  UNL1       -0.0091
      8 C          61.0345   86.3588    8.2164 C.1     1  UNL1       -0.0484
      9 N          61.9760   90.4475   12.5054 N.pl3   1  UNL1       -0.2821
     10 H          61.2121   90.8473   12.9806 H       1  UNL1        0.1551
     11 C          63.3753   90.8606   12.8536 C.ar    1  UNL1        0.1527
     12 C          64.0051   90.3775   14.1265 C.ar    1  UNL1        0.1340
     13 N          65.4044   90.7905   14.4747 N.ar    1  UNL1       -0.2290
     14 C          66.1739   91.6867   13.5502 C.ar    1  UNL1        0.1683
     15 C          65.5442   92.1698   12.2774 C.ar    1  UNL1        0.1299
     16 N          64.1448   91.7568   11.9291 N.ar    1  UNL1       -0.2251
     17 C          67.5733   92.0998   13.8985 C.1     1  UNL1        0.1214
     18 N          68.9726   92.5128   14.2468 N.1     1  UNL1       -0.1892
     19 N          62.7871   85.6981   10.5599 N.pl3   1  UNL1       -0.3301
     20 H          63.6116   85.5059   10.0574 H       1  UNL1        0.1469
     21 C          62.1719   84.6384   11.4249 C.3     1  UNL1        0.1185
     22 C          62.8062   84.2785   12.7357 C.3     1  UNL1        0.1503
     23 C          62.9615   82.8378   13.1233 C.3     1  UNL1        0.1003
     24 N          63.5958   82.4778   14.4340 N.3     1  UNL1       -0.2933
     25 C          64.0749   83.5586   15.3572 C.3     1  UNL1        0.1011
     26 C          63.9197   84.9993   14.9696 C.3     1  UNL1        0.1592
     27 O          63.2853   85.3593   13.6589 O.3     1  UNL1       -0.3516
     28 H          64.4043   81.8941   14.2194 H       1  UNL1        0.1234
@<TRIPOS>BOND
     1     7     8    3
     2     8     1    1
     3     1     2   ar
     4     2     3   ar
     5     3     4   ar
     6     4     9    1
     7     9    11    1
     8    11    12   ar
     9    12    13   ar
    10    13    14   ar
    11    14    17    1
    12    17    18    3
    13    14    15   ar
    14    15    16   ar
    15     4     5   ar
    16     5     6   ar
    17     6    19    1
    18    19    21    1
    19    22    21    1
    20    22    23    1
    21    23    24    1
    22    24    25    1
    23    25    26    1
    24    26    27    1
    25     6     1   ar
    26    27    22    1
    27    16    11   ar
    28     9    10    1
    29    19    20    1
    30    24    28    1
@<TRIPOS>MOLECULE
*****
 28 30 0 0 0
SMALL
GASTEIGER

@<TRIPOS>ATOM
      1 C          60.5773   88.2568    9.8010 C.ar    1  UNL1        0.0749
      2 C          60.1867   89.6579   10.1674 C.ar    1  UNL1        0.1097
      3 N          61.0345   90.4482   11.1195 N.ar    1  UNL1       -0.2283
      4 C          62.2731   89.8375   11.7052 C.ar    1  UNL1        0.1345
      5 C          62.6637   88.4364   11.3387 C.ar    1  UNL1        0.0494
      6 C          61.8158   87.6461   10.3866 C.ar    1  UNL1        0.0568
      7 C          58.8816   86.6762    7.8968 C.1     1  UNL1       -0.0091
      8 C          59.7294   87.4665    8.8489 C.1     1  UNL1       -0.0484
      9 N          63.1209   90.6278   12.6573 N.pl3   1  UNL1       -0.2821
     10 H          63.0537   90.4669   13.6262 H       1  UNL1        0.1551
     11 C          64.0712   91.6633   12.1331 C.ar    1  UNL1        0.1527
     12 C          64.1113   91.9700   10.6653 C.ar    1  UNL1        0.1340
     13 N          65.0615   93.0054   10.1411 N.ar    1  UNL1       -0.2290
     14 C          65.9718   93.7342   11.0847 C.ar    1  UNL1        0.1683
     15 C          65.9318   93.4275   12.5525 C.ar    1  UNL1        0.1299
     16 N          64.9815   92.3920   13.0767 N.ar    1  UNL1       -0.2251
     17 C          66.9221   94.7697   10.5605 C.1     1  UNL1        0.1214
     18 N          67.8724   95.8051   10.0363 N.1     1  UNL1       -0.1892
     19 N          62.2065   86.2449   10.0201 N.pl3   1  UNL1       -0.3301
     20 H          62.6385   86.0649    9.1540 H       1  UNL1        0.1469
     21 C          61.9390   85.1181   10.9734 C.3     1  UNL1        0.1185
     22 C          62.9282   84.8001   12.0553 C.3     1  UNL1        0.1503
     23 C          63.8295   83.6086   11.9208 C.3     1  UNL1        0.1003
     24 N          64.8187   83.2906   13.0026 N.3     1  UNL1       -0.2933
     25 C          64.9065   84.1640   14.2189 C.3     1  UNL1        0.1011
     26 C          64.0052   85.3555   14.3534 C.3     1  UNL1        0.1592
     27 O          63.0161   85.6735   13.2715 O.3     1  UNL1       -0.3516
     28 H          65.7417   83.2964   12.5686 H       1  UNL1        0.1234
@<TRIPOS>BOND
     1     7     8    3
     2     8     1    1
     3     1     2   ar
     4     2     3   ar
     5     3     4   ar
     6     4     9    1
     7     9    11    1
     8    11    12   ar
     9    12    13   ar
    10    13    14   ar
    11    14    17    1
    12    17    18    3
    13    14    15   ar
    14    15    16   ar
    15     4     5   ar
    16     5     6   ar
    17     6    19    1
    18    19    21    1
    19    22    21    1
    20    22    23    1
    21    23    24    1
    22    24    25    1
    23    25    26    1
    24    26    27    1
    25     6     1   ar
    26    27    22    1
    27    16    11   ar
    28     9    10    1
    29    19    20    1
    30    24    28    1
@<TRIPOS>MOLECULE
*****
 28 30 0 0 0
SMALL
GASTEIGER

@<TRIPOS>ATOM
      1 C          63.2745   81.4381   12.1540 C.ar    1  UNL1        0.0749
      2 C          62.8065   80.9570   13.4954 C.ar    1  UNL1        0.1097
      3 N          63.0780   81.7759   14.7225 N.ar    1  UNL1       -0.2283
      4 C          63.8174   83.0759   14.6082 C.ar    1  UNL1        0.1345
      5 C          64.2853   83.5571   13.2667 C.ar    1  UNL1        0.0494
      6 C          64.0139   82.7382   12.0397 C.ar    1  UNL1        0.0568
      7 C          62.7315   79.8004    9.6998 C.1     1  UNL1       -0.0091
      8 C          63.0030   80.6193   10.9269 C.1     1  UNL1       -0.0484
      9 N          64.0889   83.8948   15.8353 N.pl3   1  UNL1       -0.2821
     10 H          64.3528   83.4520   16.6740 H       1  UNL1        0.1551
     11 C          63.9582   85.3882   15.7844 C.ar    1  UNL1        0.1527
     12 C          63.1789   86.1094   16.8439 C.ar    1  UNL1        0.1340
     13 N          63.0482   87.6028   16.7930 N.ar    1  UNL1       -0.2290
     14 C          63.6969   88.3751   15.6826 C.ar    1  UNL1        0.1683
     15 C          64.4762   87.6539   14.6232 C.ar    1  UNL1        0.1299
     16 N          64.6069   86.1604   14.6740 N.ar    1  UNL1       -0.2251
     17 C          63.5662   89.8685   15.6318 C.1     1  UNL1        0.1214
     18 N          63.4355   91.3619   15.5809 N.1     1  UNL1       -0.1892
     19 N          64.4818   83.2194   10.6982 N.pl3   1  UNL1       -0.3301
     20 H          65.4375   83.1762   10.4656 H       1  UNL1        0.1469
     21 C          63.4938   83.7664    9.7111 C.3     1  UNL1        0.1185
     22 C          62.7492   85.0320   10.0179 C.3     1  UNL1        0.1503
     23 C          62.0467   85.1885   11.3340 C.3     1  UNL1        0.1003
     24 N          61.3022   86.4540   11.6409 N.3     1  UNL1       -0.2933
     25 C          61.2602   87.5630   10.6317 C.3     1  UNL1        0.1011
     26 C          61.9628   87.4064    9.3157 C.3     1  UNL1        0.1592
     27 O          62.7073   86.1410    9.0088 O.3     1  UNL1       -0.3516
     28 H          61.7177   86.8421   12.4877 H       1  UNL1        0.1234
@<TRIPOS>BOND
     1     7     8    3
     2     8     1    1
     3     1     2   ar
     4     2     3   ar
     5     3     4   ar
     6     4     9    1
     7     9    11    1
     8    11    12   ar
     9    12    13   ar
    10    13    14   ar
    11    14    17    1
    12    17    18    3
    13    14    15   ar
    14    15    16   ar
    15     4     5   ar
    16     5     6   ar
    17     6    19    1
    18    19    21    1
    19    22    21    1
    20    22    23    1
    21    23    24    1
    22    24    25    1
    23    25    26    1
    24    26    27    1
    25     6     1   ar
    26    27    22    1
    27    16    11   ar
    28     9    10    1
    29    19    20    1
    30    24    28    1
@<TRIPOS>MOLECULE
*****
 28 30 0 0 0
SMALL
GASTEIGER

@<TRIPOS>ATOM
      1 C          63.6366   86.0640   13.3702 C.ar    1  UNL1        0.0749
      2 C          64.2925   86.5720   14.6198 C.ar    1  UNL1        0.1097
      3 N          64.4248   88.0483   14.8504 N.ar    1  UNL1       -0.2283
      4 C          63.9010   89.0165   13.8315 C.ar    1  UNL1        0.1345
      5 C          63.2451   88.5084   12.5819 C.ar    1  UNL1        0.0494
      6 C          63.1129   87.0321   12.3512 C.ar    1  UNL1        0.0568
      7 C          63.3721   83.1115   12.9088 C.1     1  UNL1       -0.0091
      8 C          63.5044   84.5877   13.1395 C.1     1  UNL1       -0.0484
      9 N          64.0333   90.4927   14.0622 N.pl3   1  UNL1       -0.2821
     10 H          63.5797   90.9139   14.8277 H       1  UNL1        0.1551
     11 C          64.8566   91.3272   13.1265 C.ar    1  UNL1        0.1527
     12 C          66.1938   91.8472   13.5644 C.ar    1  UNL1        0.1340
     13 N          67.0171   92.6817   12.6287 N.ar    1  UNL1       -0.2290
     14 C          66.5034   92.9963   11.2550 C.ar    1  UNL1        0.1683
     15 C          65.1663   92.4764   10.8170 C.ar    1  UNL1        0.1299
     16 N          64.3429   91.6419   11.7527 N.ar    1  UNL1       -0.2251
     17 C          67.3269   93.8309   10.3193 C.1     1  UNL1        0.1214
     18 N          68.1502   94.6655    9.3836 N.1     1  UNL1       -0.1892
     19 N          62.4569   86.5241   11.1015 N.pl3   1  UNL1       -0.3301
     20 H          62.9997   86.1003   10.3980 H       1  UNL1        0.1469
     21 C          60.9738   86.6617   10.9238 C.3     1  UNL1        0.1185
     22 C          60.4247   87.3536    9.7114 C.3     1  UNL1        0.1503
     23 C          60.6593   88.8221    9.5152 C.3     1  UNL1        0.1003
     24 N          60.1102   89.5139    8.3029 N.3     1  UNL1       -0.2933
     25 C          59.3266   88.7373    7.2867 C.3     1  UNL1        0.1011
     26 C          59.0921   87.2687    7.4828 C.3     1  UNL1        0.1592
     27 O          59.6412   86.5769    8.6952 O.3     1  UNL1       -0.3516
     28 H          60.9052   89.9229    7.8119 H       1  UNL1        0.1234
@<TRIPOS>BOND
     1     7     8    3
     2     8     1    1
     3     1     2   ar
     4     2     3   ar
     5     3     4   ar
     6     4     9    1
     7     9    11    1
     8    11    12   ar
     9    12    13   ar
    10    13    14   ar
    11    14    17    1
    12    17    18    3
    13    14    15   ar
    14    15    16   ar
    15     4     5   ar
    16     5     6   ar
    17     6    19    1
    18    19    21    1
    19    22    21    1
    20    22    23    1
    21    23    24    1
    22    24    25    1
    23    25    26    1
    24    26    27    1
    25     6     1   ar
    26    27    22    1
    27    16    11   ar
    28     9    10    1
    29    19    20    1
    30    24    28    1
@<TRIPOS>MOLECULE
*****
 28 30 0 0 0
SMALL
GASTEIGER

@<TRIPOS>ATOM
      1 C          61.6023   87.7810   10.0121 C.ar    1  UNL1        0.0749
      2 C          61.6596   89.2581    9.7579 C.ar    1  UNL1        0.1097
      3 N          62.4113   90.1525   10.6987 N.ar    1  UNL1       -0.2283
      4 C          63.1057   89.5697   11.8937 C.ar    1  UNL1        0.1345
      5 C          63.0485   88.0925   12.1478 C.ar    1  UNL1        0.0494
      6 C          62.2968   87.1981   11.2070 C.ar    1  UNL1        0.0568
      7 C          60.0990   85.9923    8.1305 C.1     1  UNL1       -0.0091
      8 C          60.8506   86.8866    9.0713 C.1     1  UNL1       -0.0484
      9 N          63.8574   90.4640   12.8345 N.pl3   1  UNL1       -0.2821
     10 H          63.8840   90.2555   13.7963 H       1  UNL1        0.1551
     11 C          64.5686   91.6760   12.3099 C.ar    1  UNL1        0.1527
     12 C          64.4939   92.0166   10.8510 C.ar    1  UNL1        0.1340
     13 N          65.2051   93.2286   10.3264 N.ar    1  UNL1       -0.2290
     14 C          65.9911   94.1000   11.2607 C.ar    1  UNL1        0.1683
     15 C          66.0659   93.7594   12.7195 C.ar    1  UNL1        0.1299
     16 N          65.3546   92.5474   13.2442 N.ar    1  UNL1       -0.2251
     17 C          66.7024   95.3120   10.7360 C.1     1  UNL1        0.1214
     18 N          67.4136   96.5239   10.2113 N.1     1  UNL1       -0.1892
     19 N          62.2396   85.7209   11.4612 N.pl3   1  UNL1       -0.3301
     20 H          61.6409   85.1520   10.9254 H       1  UNL1        0.1469
     21 C          63.0946   85.1105   12.5319 C.3     1  UNL1        0.1185
     22 C          62.8657   83.6898   12.9555 C.3     1  UNL1        0.1503
     23 C          62.5316   83.3778   14.3842 C.3     1  UNL1        0.1003
     24 N          62.3026   81.9572   14.8078 N.3     1  UNL1       -0.2933
     25 C          62.4077   80.8487   13.8029 C.3     1  UNL1        0.1011
     26 C          62.7418   81.1607   12.3742 C.3     1  UNL1        0.1592
     27 O          62.9708   82.5813   11.9505 O.3     1  UNL1       -0.3516
     28 H          61.3605   81.9140   15.1964 H       1  UNL1        0.1234
@<TRIPOS>BOND
     1     7     8    3
     2     8     1    1
     3     1     2   ar
     4     2     3   ar
     5     3     4   ar
     6     4     9    1
     7     9    11    1
     8    11    12   ar
     9    12    13   ar
    10    13    14   ar
    11    14    17    1
    12    17    18    3
    13    14    15   ar
    14    15    16   ar
    15     4     5   ar
    16     5     6   ar
    17     6    19    1
    18    19    21    1
    19    22    21    1
    20    22    23    1
    21    23    24    1
    22    24    25    1
    23    25    26    1
    24    26    27    1
    25     6     1   ar
    26    27    22    1
    27    16    11   ar
    28     9    10    1
    29    19    20    1
    30    24    28    1
@<TRIPOS>MOLECULE
*****
 28 30 0 0 0
SMALL
GASTEIGER

@<TRIPOS>ATOM
      1 C          64.2425   91.6190   11.8506 C.ar    1  UNL1        0.0749
      2 C          63.5868   91.6676   10.5024 C.ar    1  UNL1        0.1097
      3 N          62.4174   90.7766   10.2046 N.ar    1  UNL1       -0.2283
      4 C          61.9038   89.8370   11.2550 C.ar    1  UNL1        0.1345
      5 C          62.5595   89.7884   12.6031 C.ar    1  UNL1        0.0494
      6 C          63.7289   90.6794   12.9009 C.ar    1  UNL1        0.0568
      7 C          66.5813   93.4010   12.4462 C.1     1  UNL1       -0.0091
      8 C          65.4119   92.5100   12.1484 C.1     1  UNL1       -0.0484
      9 N          60.7344   88.9460   10.9572 N.pl3   1  UNL1       -0.2821
     10 H          59.9026   89.0356   11.4761 H       1  UNL1        0.1551
     11 C          60.8324   87.9185    9.8688 C.ar    1  UNL1        0.1527
     12 C          62.0776   87.0944    9.7252 C.ar    1  UNL1        0.1340
     13 N          62.1756   86.0669    8.6369 N.ar    1  UNL1       -0.2290
     14 C          61.0285   85.8634    7.6920 C.ar    1  UNL1        0.1683
     15 C          59.7834   86.6874    7.8355 C.ar    1  UNL1        0.1299
     16 N          59.6853   87.7150    8.9239 N.ar    1  UNL1       -0.2251
     17 C          61.1266   84.8359    6.6036 C.1     1  UNL1        0.1214
     18 N          61.2247   83.8084    5.5152 N.1     1  UNL1       -0.1892
     19 N          64.3847   90.6307   14.2492 N.pl3   1  UNL1       -0.3301
     20 H          65.3071   90.9565   14.3600 H       1  UNL1        0.1469
     21 C          63.6350   90.0857   15.4286 C.3     1  UNL1        0.1185
     22 C          63.6530   88.6130   15.7134 C.3     1  UNL1        0.1503
     23 C          64.4263   87.6863   14.8227 C.3     1  UNL1        0.1003
     24 N          64.4443   86.2137   15.1075 N.3     1  UNL1       -0.2933
     25 C          63.6891   85.6679   16.2829 C.3     1  UNL1        0.1011
     26 C          62.9158   86.5946   17.1735 C.3     1  UNL1        0.1592
     27 O          62.8978   88.0672   16.8888 O.3     1  UNL1       -0.3516
     28 H          65.4212   85.9509   15.2373 H       1  UNL1        0.1234
@<TRIPOS>BOND
     1     7     8    3
     2     8     1    1
     3     1     2   ar
     4     2     3   ar
     5     3     4   ar
     6     4     9    1
     7     9    11    1
     8    11    12   ar
     9    12    13   ar
    10    13    14   ar
    11    14    17    1
    12    17    18    3
    13    14    15   ar
    14    15    16   ar
    15     4     5   ar
    16     5     6   ar
    17     6    19    1
    18    19    21    1
    19    22    21    1
    20    22    23    1
    21    23    24    1
    22    24    25    1
    23    25    26    1
    24    26    27    1
    25     6     1   ar
    26    27    22    1
    27    16    11   ar
    28     9    10    1
    29    19    20    1
    30    24    28    1
