@<TRIPOS>MOLECULE
*****
 36 39 0 0 0
SMALL
GASTEIGER

@<TRIPOS>ATOM
      1 C          66.0086   92.8567   14.2343 C.3     1  UNL1        0.0821
      2 C          66.5059   94.0101   13.4143 C.3     1  UNL1        0.0470
      3 C          66.1190   94.1253   11.9697 C.3     1  UNL1        0.1134
      4 O          66.6163   95.2788   11.1497 O.3     1  UNL1       -0.3844
      5 C          65.2349   93.0870   11.3449 C.3     1  UNL1        0.0508
      6 C          64.7376   91.9336   12.1649 C.3     1  UNL1        0.1256
      7 N          65.1245   91.8185   13.6096 N.3     1  UNL1       -0.1544
      8 H          67.1709   95.8523   11.7014 H       1  UNL1        0.2103
      9 S          64.6272   90.6650   14.4295 S.O2    1  UNL1        0.0633
     10 O          65.9169   89.9378   14.1888 O.2     1  UNL1       -0.1528
     11 O          63.3376   91.3921   14.6702 O.2     1  UNL1       -0.1528
     12 C          64.1299   89.5116   15.2494 C.ar    1  UNL1        0.1223
     13 C          64.5136   88.1090   14.8812 C.ar    1  UNL1        0.0208
     14 C          64.0162   86.9556   15.7012 C.ar    1  UNL1        0.0128
     15 C          63.1353   87.2047   16.8893 C.ar    1  UNL1        0.0578
     16 CL         62.6379   86.0513   17.7092 Cl      1  UNL1       -0.0822
     17 C          62.7516   88.6073   17.2575 C.ar    1  UNL1        0.0128
     18 C          63.2489   89.7607   16.4376 C.ar    1  UNL1        0.0208
     19 C          67.8234   92.4766   16.0542 C.3     1  UNL1        0.0015
     20 C          66.3955   92.7415   15.6789 C.3     1  UNL1        0.0178
     21 C          63.8535   90.8953   11.5402 C.3     1  UNL1        0.2277
     22 O          62.3621   91.0266   11.6319 O.3     1  UNL1       -0.4330
     23 C          61.4778   89.9992   10.9894 C.2     1  UNL1        0.4049
     24 O          60.3029   90.4320   10.1634 O.2     1  UNL1       -0.2262
     25 N          61.7684   88.5392   11.1731 N.am    1  UNL1       -0.2459
     26 C          62.9432   88.1064   11.9991 C.3     1  UNL1        0.0981
     27 C          63.2338   86.6463   12.1828 C.3     1  UNL1        0.0376
     28 C          62.3495   85.6190   11.5403 C.3     1  UNL1        0.0609
     29 C          61.1747   86.0518   10.7142 C.3     1  UNL1        0.0376
     30 C          60.8841   87.5119   10.5306 C.3     1  UNL1        0.0981
     31 N          62.6401   84.1589   11.7239 N.3     1  UNL1       -0.2738
     32 C          63.1762   83.3512   10.5793 C.3     1  UNL1        0.0720
     33 C          63.4668   81.8911   10.7630 C.3     1  UNL1        0.0174
     34 C          63.2213   81.2388   12.0912 C.3     1  UNL1        0.0029
     35 C          62.6852   82.0465   13.2358 C.3     1  UNL1        0.0174
     36 C          62.3946   83.5067   13.0521 C.3     1  UNL1        0.0720
@<TRIPOS>BOND
     1    19    20    1
     2     1    20    1
     3     1     2    1
     4     2     3    1
     5     3     4    1
     6     3     5    1
     7     5     6    1
     8     6    21    1
     9    21    22    1
    10    22    23    1
    11    23    24    2
    12    23    25   am
    13    25    26    1
    14    26    27    1
    15    27    28    1
    16    28    31    1
    17    31    32    1
    18    32    33    1
    19    33    34    1
    20    34    35    1
    21    35    36    1
    22    28    29    1
    23    29    30    1
    24     6     7    1
    25     7     9    1
    26     9    10    2
    27     9    11    2
    28     9    12    1
    29    12    13   ar
    30    13    14   ar
    31    14    15   ar
    32    15    16    1
    33    15    17   ar
    34    17    18   ar
    35     7     1    1
    36    18    12   ar
    37    30    25    1
    38    36    31    1
    39     4     8    1
@<TRIPOS>MOLECULE
*****
 36 39 0 0 0
SMALL
GASTEIGER

@<TRIPOS>ATOM
      1 C          64.9813   91.8798   12.6397 C.3     1  UNL1        0.0821
      2 C          65.9008   92.6781   13.5156 C.3     1  UNL1        0.0470
      3 C          65.9450   92.4166   14.9920 C.3     1  UNL1        0.1134
      4 O          66.8645   93.2150   15.8679 O.3     1  UNL1       -0.3844
      5 C          65.0696   91.3569   15.5925 C.3     1  UNL1        0.0508
      6 C          64.1501   90.5586   14.7166 C.3     1  UNL1        0.1256
      7 N          64.1060   90.8200   13.2402 N.3     1  UNL1       -0.1544
      8 H          67.3553   93.8522   15.3256 H       1  UNL1        0.2103
      9 S          63.1864   90.0217   12.3643 S.O2    1  UNL1        0.0633
     10 O          62.4027   91.2628   12.0557 O.2     1  UNL1       -0.1528
     11 O          63.9701   88.7805   12.6730 O.2     1  UNL1       -0.1528
     12 C          62.2670   89.2233   11.4885 C.ar    1  UNL1        0.1223
     13 C          61.1907   89.9139   10.7044 C.ar    1  UNL1        0.0208
     14 C          60.2712   89.1154    9.8285 C.ar    1  UNL1        0.0128
     15 C          60.4280   87.6265    9.7368 C.ar    1  UNL1        0.0578
     16 CL         59.5085   86.8281    8.8610 Cl      1  UNL1       -0.0822
     17 C          61.5042   86.9359   10.5209 C.ar    1  UNL1        0.0128
     18 C          62.4237   87.7343   11.3967 C.ar    1  UNL1        0.0208
     19 C          65.9029   93.1073   10.5436 C.3     1  UNL1        0.0015
     20 C          64.9372   92.1413   11.1633 C.3     1  UNL1        0.0178
     21 C          63.2747   89.4987   15.3171 C.3     1  UNL1        0.2277
     22 O          63.8305   88.5630   16.3493 O.3     1  UNL1       -0.4330
     23 C          63.0813   87.3149   16.7112 C.2     1  UNL1        0.4049
     24 O          62.3360   87.2376   18.0106 O.2     1  UNL1       -0.2262
     25 N          63.0773   86.1441   15.7736 N.am    1  UNL1       -0.2459
     26 C          63.8225   86.2213   14.4741 C.3     1  UNL1        0.0981
     27 C          63.8186   85.0505   13.5365 C.3     1  UNL1        0.0376
     28 C          63.0694   83.8024   13.8983 C.3     1  UNL1        0.0609
     29 C          62.3241   83.7251   15.1978 C.3     1  UNL1        0.0376
     30 C          62.3281   84.8960   16.1354 C.3     1  UNL1        0.0981
     31 N          63.0654   82.6315   12.9607 N.3     1  UNL1       -0.2738
     32 C          62.6228   81.2832   13.4465 C.3     1  UNL1        0.0720
     33 C          62.6188   80.1124   12.5089 C.3     1  UNL1        0.0174
     34 C          63.0575   80.2899   11.0854 C.3     1  UNL1        0.0029
     35 C          63.5001   81.6383   10.5997 C.3     1  UNL1        0.0174
     36 C          63.5041   82.8091   11.5374 C.3     1  UNL1        0.0720
@<TRIPOS>BOND
     1    19    20    1
     2     1    20    1
     3     1     2    1
     4     2     3    1
     5     3     4    1
     6     3     5    1
     7     5     6    1
     8     6    21    1
     9    21    22    1
    10    22    23    1
    11    23    24    2
    12    23    25   am
    13    25    26    1
    14    26    27    1
    15    27    28    1
    16    28    31    1
    17    31    32    1
    18    32    33    1
    19    33    34    1
    20    34    35    1
    21    35    36    1
    22    28    29    1
    23    29    30    1
    24     6     7    1
    25     7     9    1
    26     9    10    2
    27     9    11    2
    28     9    12    1
    29    12    13   ar
    30    13    14   ar
    31    14    15   ar
    32    15    16    1
    33    15    17   ar
    34    17    18   ar
    35     7     1    1
    36    18    12   ar
    37    30    25    1
    38    36    31    1
    39     4     8    1
@<TRIPOS>MOLECULE
*****
 36 39 0 0 0
SMALL
GASTEIGER

@<TRIPOS>ATOM
      1 C          65.9295   91.5794   14.0161 C.3     1  UNL1        0.0821
      2 C          65.4114   90.5775   15.0049 C.3     1  UNL1        0.0470
      3 C          64.1332   89.8429   14.7286 C.3     1  UNL1        0.1134
      4 O          63.6151   88.8409   15.7174 O.3     1  UNL1       -0.3844
      5 C          63.3730   90.1101   13.4634 C.3     1  UNL1        0.0508
      6 C          63.8911   91.1120   12.4746 C.3     1  UNL1        0.1256
      7 N          65.1694   91.8466   12.7510 N.3     1  UNL1       -0.1544
      8 H          64.2210   88.7895   16.4732 H       1  UNL1        0.2103
      9 S          65.6875   92.8485   11.7621 S.O2    1  UNL1        0.0633
     10 O          65.5534   93.9326   12.7901 O.2     1  UNL1       -0.1528
     11 O          65.8215   91.7645   10.7340 O.2     1  UNL1       -0.1528
     12 C          66.2055   93.8504   10.7732 C.ar    1  UNL1        0.1223
     13 C          67.1773   93.4243    9.7129 C.ar    1  UNL1        0.0208
     14 C          67.6953   94.4262    8.7240 C.ar    1  UNL1        0.0128
     15 C          67.2416   95.8541    8.7954 C.ar    1  UNL1        0.0578
     16 CL         67.7597   96.8559    7.8066 Cl      1  UNL1       -0.0822
     17 C          66.2699   96.2802    9.8557 C.ar    1  UNL1        0.0128
     18 C          65.7518   95.2784   10.8446 C.ar    1  UNL1        0.0208
     19 C          67.9520   92.0693   15.5716 C.3     1  UNL1        0.0015
     20 C          67.2078   92.3140   14.2925 C.3     1  UNL1        0.0178
     21 C          63.1310   91.3792   11.2093 C.3     1  UNL1        0.2277
     22 O          61.7315   90.8629   11.0519 O.3     1  UNL1       -0.4330
     23 C          61.4359   89.7927   10.0432 C.2     1  UNL1        0.4049
     24 O          60.7884   90.1504    8.7382 O.2     1  UNL1       -0.2262
     25 N          61.7878   88.3650   10.3394 N.am    1  UNL1       -0.2459
     26 C          62.4352   88.0074   11.6444 C.3     1  UNL1        0.0981
     27 C          62.7871   86.5797   11.9407 C.3     1  UNL1        0.0376
     28 C          62.4915   85.5096   10.9320 C.3     1  UNL1        0.0609
     29 C          61.8440   85.8672    9.6270 C.3     1  UNL1        0.0376
     30 C          61.4922   87.2950    9.3308 C.3     1  UNL1        0.0981
     31 N          62.8433   84.0819   11.2282 N.3     1  UNL1       -0.2738
     32 C          63.5938   83.2687   10.2155 C.3     1  UNL1        0.0720
     33 C          63.9456   81.8410   10.5118 C.3     1  UNL1        0.0174
     34 C          63.5471   81.2264   11.8208 C.3     1  UNL1        0.0029
     35 C          62.7966   82.0396   12.8335 C.3     1  UNL1        0.0174
     36 C          62.4448   83.4674   12.5372 C.3     1  UNL1        0.0720
@<TRIPOS>BOND
     1    19    20    1
     2     1    20    1
     3     1     2    1
     4     2     3    1
     5     3     4    1
     6     3     5    1
     7     5     6    1
     8     6    21    1
     9    21    22    1
    10    22    23    1
    11    23    24    2
    12    23    25   am
    13    25    26    1
    14    26    27    1
    15    27    28    1
    16    28    31    1
    17    31    32    1
    18    32    33    1
    19    33    34    1
    20    34    35    1
    21    35    36    1
    22    28    29    1
    23    29    30    1
    24     6     7    1
    25     7     9    1
    26     9    10    2
    27     9    11    2
    28     9    12    1
    29    12    13   ar
    30    13    14   ar
    31    14    15   ar
    32    15    16    1
    33    15    17   ar
    34    17    18   ar
    35     7     1    1
    36    18    12   ar
    37    30    25    1
    38    36    31    1
    39     4     8    1
@<TRIPOS>MOLECULE
*****
 36 39 0 0 0
SMALL
GASTEIGER

@<TRIPOS>ATOM
      1 C          60.6744   86.6180    8.5051 C.3     1  UNL1        0.0821
      2 C          60.0043   87.7826    7.8384 C.3     1  UNL1        0.0470
      3 C          60.1716   89.1647    8.3969 C.3     1  UNL1        0.1134
      4 O          59.5014   90.3293    7.7300 O.3     1  UNL1       -0.3844
      5 C          61.0090   89.3821    9.6222 C.3     1  UNL1        0.0508
      6 C          61.6791   88.2175   10.2889 C.3     1  UNL1        0.1256
      7 N          61.5118   86.8355    9.7304 N.3     1  UNL1       -0.1544
      8 H          59.0033   90.0173    6.9584 H       1  UNL1        0.2103
      9 S          62.1820   85.6708   10.3973 S.O2    1  UNL1        0.0633
     10 O          63.1415   85.5656    9.2492 O.2     1  UNL1       -0.1528
     11 O          61.2224   85.7761   11.5453 O.2     1  UNL1       -0.1528
     12 C          62.8521   84.5063   11.0641 C.ar    1  UNL1        0.1223
     13 C          62.7974   84.3632   12.5563 C.ar    1  UNL1        0.0208
     14 C          63.4675   83.1986   13.2231 C.ar    1  UNL1        0.0128
     15 C          64.1923   82.1771   12.3978 C.ar    1  UNL1        0.0578
     16 CL         64.8624   81.0125   13.0646 Cl      1  UNL1       -0.0822
     17 C          64.2470   82.3202   10.9056 C.ar    1  UNL1        0.0128
     18 C          63.5769   83.4847   10.2388 C.ar    1  UNL1        0.0208
     19 C          61.2654   84.8262    6.7190 C.3     1  UNL1        0.0015
     20 C          60.5070   85.2360    7.9466 C.3     1  UNL1        0.0178
     21 C          62.5166   88.4350   11.5143 C.3     1  UNL1        0.2277
     22 O          62.0721   89.4108   12.5631 O.3     1  UNL1       -0.4330
     23 C          63.0847   90.2518   13.2824 C.2     1  UNL1        0.4049
     24 O          63.3079   90.0624   14.7536 O.2     1  UNL1       -0.2262
     25 N          63.8740   91.2822   12.5307 N.am    1  UNL1       -0.2459
     26 C          63.6508   91.4716   11.0595 C.3     1  UNL1        0.0981
     27 C          64.4402   92.5020   10.3077 C.3     1  UNL1        0.0376
     28 C          65.4528   93.3430   11.0271 C.3     1  UNL1        0.0609
     29 C          65.6760   93.1536   12.4982 C.3     1  UNL1        0.0376
     30 C          64.8866   92.1231   13.2500 C.3     1  UNL1        0.0981
     31 N          66.2421   94.3734   10.2753 N.3     1  UNL1       -0.2738
     32 C          66.1084   95.8251   10.6282 C.3     1  UNL1        0.0720
     33 C          66.8978   96.8555    9.8764 C.3     1  UNL1        0.0174
     34 C          67.8208   96.4342    8.7716 C.3     1  UNL1        0.0029
     35 C          67.9545   94.9824    8.4187 C.3     1  UNL1        0.0174
     36 C          67.1651   93.9520    9.1706 C.3     1  UNL1        0.0720
@<TRIPOS>BOND
     1    19    20    1
     2     1    20    1
     3     1     2    1
     4     2     3    1
     5     3     4    1
     6     3     5    1
     7     5     6    1
     8     6    21    1
     9    21    22    1
    10    22    23    1
    11    23    24    2
    12    23    25   am
    13    25    26    1
    14    26    27    1
    15    27    28    1
    16    28    31    1
    17    31    32    1
    18    32    33    1
    19    33    34    1
    20    34    35    1
    21    35    36    1
    22    28    29    1
    23    29    30    1
    24     6     7    1
    25     7     9    1
    26     9    10    2
    27     9    11    2
    28     9    12    1
    29    12    13   ar
    30    13    14   ar
    31    14    15   ar
    32    15    16    1
    33    15    17   ar
    34    17    18   ar
    35     7     1    1
    36    18    12   ar
    37    30    25    1
    38    36    31    1
    39     4     8    1
@<TRIPOS>MOLECULE
*****
 36 39 0 0 0
SMALL
GASTEIGER

@<TRIPOS>ATOM
      1 C          60.4772   86.5153    7.7815 C.3     1  UNL1        0.0821
      2 C          59.7209   87.5586    7.0137 C.3     1  UNL1        0.0470
      3 C          59.6667   88.9697    7.5193 C.3     1  UNL1        0.1134
      4 O          58.9103   90.0130    6.7515 O.3     1  UNL1       -0.3844
      5 C          60.3688   89.3377    8.7927 C.3     1  UNL1        0.0508
      6 C          61.1251   88.2944    9.5605 C.3     1  UNL1        0.1256
      7 N          61.1793   86.8832    9.0549 N.3     1  UNL1       -0.1544
      8 H          58.5192   89.6116    5.9597 H       1  UNL1        0.2103
      9 S          61.9357   85.8400    9.8228 S.O2    1  UNL1        0.0633
     10 O          63.0698   85.9436    8.8465 O.2     1  UNL1       -0.1528
     11 O          60.8016   85.7363   10.7990 O.2     1  UNL1       -0.1528
     12 C          62.6920   84.7967   10.5906 C.ar    1  UNL1        0.1223
     13 C          63.5706   83.8213    9.8650 C.ar    1  UNL1        0.0208
     14 C          64.3270   82.7780   10.6329 C.ar    1  UNL1        0.0128
     15 C          64.2047   82.7103   12.1264 C.ar    1  UNL1        0.0578
     16 CL         64.9610   81.6670   12.8942 Cl      1  UNL1       -0.0822
     17 C          63.3261   83.6857   12.8520 C.ar    1  UNL1        0.0128
     18 C          62.5697   84.7290   12.0841 C.ar    1  UNL1        0.0208
     19 C          61.6069   84.6926    6.3147 C.3     1  UNL1        0.0015
     20 C          60.5314   85.1041    7.2759 C.3     1  UNL1        0.0178
     21 C          61.8273   88.6623   10.8340 C.3     1  UNL1        0.2277
     22 O          61.8155   90.0836   11.3133 O.3     1  UNL1       -0.4330
     23 C          62.8942   91.0308   10.8781 C.2     1  UNL1        0.4049
     24 O          62.8819   91.5936    9.4877 O.2     1  UNL1       -0.2262
     25 N          63.9850   91.4153   11.8332 N.am    1  UNL1       -0.2459
     26 C          63.9972   90.8525   13.2236 C.3     1  UNL1        0.0981
     27 C          65.0880   91.2369   14.1787 C.3     1  UNL1        0.0376
     28 C          66.1667   92.1842   13.7435 C.3     1  UNL1        0.0609
     29 C          66.1544   92.7469   12.3531 C.3     1  UNL1        0.0376
     30 C          65.0635   92.3625   11.3979 C.3     1  UNL1        0.0981
     31 N          67.2575   92.5686   14.6986 N.3     1  UNL1       -0.2738
     32 C          67.9328   91.5172   15.5284 C.3     1  UNL1        0.0720
     33 C          69.0236   91.9017   16.4835 C.3     1  UNL1        0.0174
     34 C          69.4391   93.3376   16.6089 C.3     1  UNL1        0.0029
     35 C          68.7638   94.3889   15.7791 C.3     1  UNL1        0.0174
     36 C          67.6730   94.0044   14.8239 C.3     1  UNL1        0.0720
@<TRIPOS>BOND
     1    19    20    1
     2     1    20    1
     3     1     2    1
     4     2     3    1
     5     3     4    1
     6     3     5    1
     7     5     6    1
     8     6    21    1
     9    21    22    1
    10    22    23    1
    11    23    24    2
    12    23    25   am
    13    25    26    1
    14    26    27    1
    15    27    28    1
    16    28    31    1
    17    31    32    1
    18    32    33    1
    19    33    34    1
    20    34    35    1
    21    35    36    1
    22    28    29    1
    23    29    30    1
    24     6     7    1
    25     7     9    1
    26     9    10    2
    27     9    11    2
    28     9    12    1
    29    12    13   ar
    30    13    14   ar
    31    14    15   ar
    32    15    16    1
    33    15    17   ar
    34    17    18   ar
    35     7     1    1
    36    18    12   ar
    37    30    25    1
    38    36    31    1
    39     4     8    1
@<TRIPOS>MOLECULE
*****
 36 39 0 0 0
SMALL
GASTEIGER

@<TRIPOS>ATOM
      1 C          63.1184   82.4896   11.7874 C.3     1  UNL1        0.0821
      2 C          63.2611   81.1208   12.3839 C.3     1  UNL1        0.0470
      3 C          63.0003   80.9088   13.8457 C.3     1  UNL1        0.1134
      4 O          63.1429   79.5398   14.4422 O.3     1  UNL1       -0.3844
      5 C          62.5968   82.0656   14.7111 C.3     1  UNL1        0.0508
      6 C          62.4541   83.4345   14.1146 C.3     1  UNL1        0.1256
      7 N          62.7150   83.6465   12.6527 N.3     1  UNL1       -0.1544
      8 H          63.4075   78.9122   13.7516 H       1  UNL1        0.2103
      9 S          62.5723   85.0154   12.0562 S.O2    1  UNL1        0.0633
     10 O          63.7946   85.4667   12.7994 O.2     1  UNL1       -0.1528
     11 O          61.3500   84.5642   11.3131 O.2     1  UNL1       -0.1528
     12 C          62.4296   86.3843   11.4598 C.ar    1  UNL1        0.1223
     13 C          61.7916   86.5526   10.1127 C.ar    1  UNL1        0.0208
     14 C          61.6489   87.9216    9.5162 C.ar    1  UNL1        0.0128
     15 C          62.1442   89.1221   10.2668 C.ar    1  UNL1        0.0578
     16 CL         62.0014   90.4909    9.6703 Cl      1  UNL1       -0.0822
     17 C          62.7821   88.9537   11.6139 C.ar    1  UNL1        0.0128
     18 C          62.9248   87.5849   12.2104 C.ar    1  UNL1        0.0208
     19 C          64.6523   83.3569    9.8781 C.3     1  UNL1        0.0015
     20 C          63.3793   82.7017   10.3255 C.3     1  UNL1        0.0178
     21 C          62.0506   84.5914   14.9799 C.3     1  UNL1        0.2277
     22 O          62.9604   85.0614   16.0759 O.3     1  UNL1       -0.4330
     23 C          62.7131   86.3830   16.7411 C.2     1  UNL1        0.4049
     24 O          61.8359   86.4588   17.9555 O.2     1  UNL1       -0.2262
     25 N          63.3428   87.6286   16.1918 N.am    1  UNL1       -0.2459
     26 C          64.2200   87.5527   14.9773 C.3     1  UNL1        0.0981
     27 C          64.8497   88.7984   14.4280 C.3     1  UNL1        0.0376
     28 C          64.6023   90.1199   15.0932 C.3     1  UNL1        0.0609
     29 C          63.7252   90.1958   16.3076 C.3     1  UNL1        0.0376
     30 C          63.0954   88.9501   16.8569 C.3     1  UNL1        0.0981
     31 N          65.2321   91.3656   14.5439 N.3     1  UNL1       -0.2738
     32 C          65.0039   91.7530   13.1129 C.3     1  UNL1        0.0720
     33 C          65.6337   92.9987   12.5636 C.3     1  UNL1        0.0174
     34 C          66.4916   93.8569   13.4453 C.3     1  UNL1        0.0029
     35 C          66.7198   93.4695   14.8764 C.3     1  UNL1        0.0174
     36 C          66.0900   92.2237   15.4256 C.3     1  UNL1        0.0720
@<TRIPOS>BOND
     1    19    20    1
     2     1    20    1
     3     1     2    1
     4     2     3    1
     5     3     4    1
     6     3     5    1
     7     5     6    1
     8     6    21    1
     9    21    22    1
    10    22    23    1
    11    23    24    2
    12    23    25   am
    13    25    26    1
    14    26    27    1
    15    27    28    1
    16    28    31    1
    17    31    32    1
    18    32    33    1
    19    33    34    1
    20    34    35    1
    21    35    36    1
    22    28    29    1
    23    29    30    1
    24     6     7    1
    25     7     9    1
    26     9    10    2
    27     9    11    2
    28     9    12    1
    29    12    13   ar
    30    13    14   ar
    31    14    15   ar
    32    15    16    1
    33    15    17   ar
    34    17    18   ar
    35     7     1    1
    36    18    12   ar
    37    30    25    1
    38    36    31    1
    39     4     8    1
@<TRIPOS>MOLECULE
*****
 36 39 0 0 0
SMALL
GASTEIGER

@<TRIPOS>ATOM
      1 C          60.1681   86.5796    7.5422 C.3     1  UNL1        0.0821
      2 C          59.3688   87.5353    6.7069 C.3     1  UNL1        0.0470
      3 C          59.3625   88.9979    7.0394 C.3     1  UNL1        0.1134
      4 O          58.5632   89.9536    6.2041 O.3     1  UNL1       -0.3844
      5 C          60.1557   89.5049    8.2073 C.3     1  UNL1        0.0508
      6 C          60.9550   88.5492    9.0425 C.3     1  UNL1        0.1256
      7 N          60.9612   87.0866    8.7100 N.3     1  UNL1       -0.1544
      8 H          58.1139   89.4663    5.4959 H       1  UNL1        0.2103
      9 S          61.7606   86.1309    9.5453 S.O2    1  UNL1        0.0633
     10 O          62.8729   86.1827    8.5403 O.2     1  UNL1       -0.1528
     11 O          60.6483   86.0791   10.5504 O.2     1  UNL1       -0.1528
     12 C          62.5599   85.1753   10.3807 C.ar    1  UNL1        0.1223
     13 C          62.4485   85.2120   11.8761 C.ar    1  UNL1        0.0208
     14 C          63.2479   84.2563   12.7114 C.ar    1  UNL1        0.0128
     15 C          64.1586   83.2640   12.0514 C.ar    1  UNL1        0.0578
     16 CL         64.9579   82.3083   12.8867 Cl      1  UNL1       -0.0822
     17 C          64.2700   83.2272   10.5559 C.ar    1  UNL1        0.0128
     18 C          63.4707   84.1829    9.7206 C.ar    1  UNL1        0.0208
     19 C          61.2165   84.5626    6.2841 C.3     1  UNL1        0.0015
     20 C          60.1743   85.1169    7.2096 C.3     1  UNL1        0.0178
     21 C          61.7482   89.0562   10.2105 C.3     1  UNL1        0.2277
     22 O          61.1200   90.0037   11.1890 O.3     1  UNL1       -0.4330
     23 C          61.4734   89.9221   12.6446 C.2     1  UNL1        0.4049
     24 O          60.5119   89.3044   13.6162 O.2     1  UNL1       -0.2262
     25 N          62.7881   90.4581   13.1284 N.am    1  UNL1       -0.2459
     26 C          63.7496   91.0757   12.1567 C.3     1  UNL1        0.0981
     27 C          65.0643   91.6117   12.6406 C.3     1  UNL1        0.0376
     28 C          65.4177   91.5300   14.0961 C.3     1  UNL1        0.0609
     29 C          64.4562   90.9124   15.0678 C.3     1  UNL1        0.0376
     30 C          63.1414   90.3764   14.5839 C.3     1  UNL1        0.0981
     31 N          66.7324   92.0660   14.5799 N.3     1  UNL1       -0.2738
     32 C          66.8123   92.7809   15.8962 C.3     1  UNL1        0.0720
     33 C          68.1270   93.3169   16.3800 C.3     1  UNL1        0.0174
     34 C          69.3620   93.1380   15.5476 C.3     1  UNL1        0.0029
     35 C          69.2821   92.4231   14.2313 C.3     1  UNL1        0.0174
     36 C          67.9673   91.8871   13.7475 C.3     1  UNL1        0.0720
@<TRIPOS>BOND
     1    19    20    1
     2     1    20    1
     3     1     2    1
     4     2     3    1
     5     3     4    1
     6     3     5    1
     7     5     6    1
     8     6    21    1
     9    21    22    1
    10    22    23    1
    11    23    24    2
    12    23    25   am
    13    25    26    1
    14    26    27    1
    15    27    28    1
    16    28    31    1
    17    31    32    1
    18    32    33    1
    19    33    34    1
    20    34    35    1
    21    35    36    1
    22    28    29    1
    23    29    30    1
    24     6     7    1
    25     7     9    1
    26     9    10    2
    27     9    11    2
    28     9    12    1
    29    12    13   ar
    30    13    14   ar
    31    14    15   ar
    32    15    16    1
    33    15    17   ar
    34    17    18   ar
    35     7     1    1
    36    18    12   ar
    37    30    25    1
    38    36    31    1
    39     4     8    1
