@<TRIPOS>MOLECULE
*****
 35 39 0 0 0
SMALL
GASTEIGER

@<TRIPOS>ATOM
      1 C          62.0671   89.4029   12.2037 C.ar    1  UNL1        0.1453
      2 C          62.8462   90.1507   11.1626 C.ar    1  UNL1        0.0375
      3 C          63.9612   91.0658   11.5738 C.ar    1  UNL1        0.0033
      4 C          64.2972   91.2332   13.0261 C.ar    1  UNL1        0.0046
      5 C          65.4124   92.1484   13.4373 C.ar    1  UNL1        0.0537
      6 C          65.7484   92.3157   14.8895 C.ar    1  UNL1        0.0045
      7 C          64.9693   91.5679   15.9306 C.ar    1  UNL1        0.0001
      8 C          63.8542   90.6528   15.5194 C.ar    1  UNL1        0.0001
      9 C          63.5182   90.4854   14.0672 C.ar    1  UNL1        0.0032
     10 C          62.4031   89.5702   13.6560 C.ar    1  UNL1        0.0375
     11 C          66.1914   92.8962   12.3962 C.2     1  UNL1        0.2495
     12 O          67.6702   92.6804   12.2672 O.2     1  UNL1       -0.2698
     13 N          65.4917   93.8597   11.4841 N.am    1  UNL1       -0.2803
     14 H          64.5211   94.0013   11.5688 H       1  UNL1        0.1552
     15 C          66.2707   94.6075   10.4430 C.ar    1  UNL1        0.0537
     16 C          66.3391   96.1053   10.4894 C.ar    1  UNL1        0.0353
     17 C          67.1181   96.8531    9.4484 C.ar    1  UNL1        0.1002
     18 N          67.8287   96.1032    8.3608 N.ar    1  UNL1       -0.2422
     19 C          67.7602   94.6055    8.3144 C.ar    1  UNL1        0.1002
     20 C          66.9812   93.8577    9.3555 C.ar    1  UNL1        0.0353
     21 O          60.9520   88.4877   11.7925 O.3     1  UNL1       -0.4534
     22 C          63.6962   83.8295   11.6514 C.ar    1  UNL1        0.1739
     23 C          63.0922   83.9979   10.2888 C.ar    1  UNL1        0.0592
     24 C          62.2551   85.2046    9.9834 C.ar    1  UNL1        0.0875
     25 N          61.6511   85.3730    8.6208 N.ar    1  UNL1       -0.2435
     26 C          60.8141   86.5797    8.3154 C.ar    1  UNL1        0.1020
     27 C          60.5810   87.6179    9.3727 C.ar    1  UNL1        0.0581
     28 C          61.1850   87.4495   10.7353 C.ar    1  UNL1        0.1483
     29 C          62.0221   86.2429   11.0406 C.ar    1  UNL1        0.0554
     30 C          62.6262   86.0744   12.4033 C.ar    1  UNL1        0.0446
     31 C          63.4632   84.8677   12.7087 C.ar    1  UNL1        0.1726
     32 C          63.9616   81.4998   12.7704 C.3     1  UNL1        0.2526
     33 O          64.5333   82.6228   11.9569 O.3     1  UNL1       -0.4683
     34 O          64.0673   84.6992   14.0714 O.3     1  UNL1       -0.4684
     35 C          64.3921   85.9052   14.9021 C.3     1  UNL1        0.2526
@<TRIPOS>BOND
     1    32    33    1
     2    33    22    1
     3    22    23   ar
     4    23    24   ar
     5    24    25   ar
     6    25    26   ar
     7    26    27   ar
     8    27    28   ar
     9    28    21    1
    10    21     1    1
    11     1     2   ar
    12     2     3   ar
    13     3     4   ar
    14     4     5   ar
    15     5    11    1
    16    11    12    2
    17    11    13   am
    18    13    15    1
    19    15    16   ar
    20    16    17   ar
    21    17    18   ar
    22    18    19   ar
    23    19    20   ar
    24     5     6   ar
    25     6     7   ar
    26     7     8   ar
    27     8     9   ar
    28     9    10   ar
    29    28    29   ar
    30    29    30   ar
    31    30    31   ar
    32    31    34    1
    33    34    35    1
    34    31    22   ar
    35    29    24   ar
    36    10     1   ar
    37     9     4   ar
    38    20    15   ar
    39    13    14    1
@<TRIPOS>MOLECULE
*****
 35 39 0 0 0
SMALL
GASTEIGER

@<TRIPOS>ATOM
      1 C          63.9492   90.1812   15.4738 C.ar    1  UNL1        0.1453
      2 C          64.3092   89.3066   14.3094 C.ar    1  UNL1        0.0375
      3 C          64.1170   87.8217   14.3991 C.ar    1  UNL1        0.0033
      4 C          63.5648   87.2113   15.6531 C.ar    1  UNL1        0.0046
      5 C          63.3726   85.7263   15.7427 C.ar    1  UNL1        0.0537
      6 C          62.8204   85.1159   16.9967 C.ar    1  UNL1        0.0045
      7 C          62.4604   85.9905   18.1610 C.ar    1  UNL1        0.0001
      8 C          62.6526   87.4754   18.0713 C.ar    1  UNL1        0.0001
      9 C          63.2048   88.0858   16.8174 C.ar    1  UNL1        0.0032
     10 C          63.3970   89.5708   16.7277 C.ar    1  UNL1        0.0375
     11 C          63.7326   84.8518   14.5784 C.2     1  UNL1        0.2495
     12 O          65.1631   84.4658   14.3445 O.2     1  UNL1       -0.2698
     13 N          62.6622   84.3634   13.6481 N.am    1  UNL1       -0.2803
     14 H          61.7233   84.6168   13.8017 H       1  UNL1        0.1552
     15 C          63.0222   83.4889   12.4837 C.ar    1  UNL1        0.0537
     16 C          62.7855   82.0094   12.5556 C.ar    1  UNL1        0.0353
     17 C          63.1454   81.1349   11.3913 C.ar    1  UNL1        0.1002
     18 N          63.7421   81.7398   10.1552 N.ar    1  UNL1       -0.2422
     19 C          63.9788   83.2193   10.0834 C.ar    1  UNL1        0.1002
     20 C          63.6188   84.0938   11.2476 C.ar    1  UNL1        0.0353
     21 O          64.1414   91.6661   15.3841 O.3     1  UNL1       -0.4534
     22 C          66.6320   92.9348   10.7540 C.ar    1  UNL1        0.1739
     23 C          67.6012   93.2622   11.8510 C.ar    1  UNL1        0.0592
     24 C          67.2208   93.0269   13.2828 C.ar    1  UNL1        0.0875
     25 N          68.1900   93.3543   14.3798 N.ar    1  UNL1       -0.2435
     26 C          67.8097   93.1189   15.8115 C.ar    1  UNL1        0.1020
     27 C          66.4602   92.5562   16.1463 C.ar    1  UNL1        0.0581
     28 C          65.4910   92.2288   15.0493 C.ar    1  UNL1        0.1483
     29 C          65.8713   92.4642   13.6176 C.ar    1  UNL1        0.0554
     30 C          64.9021   92.1368   12.5205 C.ar    1  UNL1        0.0446
     31 C          65.2824   92.3721   11.0888 C.ar    1  UNL1        0.1726
     32 C          68.3778   92.7844    8.8358 C.3     1  UNL1        0.2526
     33 O          67.0123   93.1702    9.3222 O.3     1  UNL1       -0.4683
     34 O          64.3132   92.0447    9.9917 O.3     1  UNL1       -0.4684
     35 C          63.1023   91.2095   10.2853 C.3     1  UNL1        0.2526
@<TRIPOS>BOND
     1    32    33    1
     2    33    22    1
     3    22    23   ar
     4    23    24   ar
     5    24    25   ar
     6    25    26   ar
     7    26    27   ar
     8    27    28   ar
     9    28    21    1
    10    21     1    1
    11     1     2   ar
    12     2     3   ar
    13     3     4   ar
    14     4     5   ar
    15     5    11    1
    16    11    12    2
    17    11    13   am
    18    13    15    1
    19    15    16   ar
    20    16    17   ar
    21    17    18   ar
    22    18    19   ar
    23    19    20   ar
    24     5     6   ar
    25     6     7   ar
    26     7     8   ar
    27     8     9   ar
    28     9    10   ar
    29    28    29   ar
    30    29    30   ar
    31    30    31   ar
    32    31    34    1
    33    34    35    1
    34    31    22   ar
    35    29    24   ar
    36    10     1   ar
    37     9     4   ar
    38    20    15   ar
    39    13    14    1
@<TRIPOS>MOLECULE
*****
 35 39 0 0 0
SMALL
GASTEIGER

@<TRIPOS>ATOM
      1 C          62.6551   90.5037   11.0620 C.ar    1  UNL1        0.1453
      2 C          63.2876   89.3663   11.8079 C.ar    1  UNL1        0.0375
      3 C          62.9345   87.9511   11.4577 C.ar    1  UNL1        0.0033
      4 C          61.9490   87.6734   10.3615 C.ar    1  UNL1        0.0046
      5 C          61.5959   86.2581   10.0113 C.ar    1  UNL1        0.0537
      6 C          60.6104   85.9804    8.9151 C.ar    1  UNL1        0.0045
      7 C          59.9779   87.1178    8.1692 C.ar    1  UNL1        0.0001
      8 C          60.3310   88.5329    8.5195 C.ar    1  UNL1        0.0001
      9 C          61.3165   88.8107    9.6156 C.ar    1  UNL1        0.0032
     10 C          61.6696   90.2259    9.9659 C.ar    1  UNL1        0.0375
     11 C          62.2284   85.1208   10.7572 C.2     1  UNL1        0.2495
     12 O          63.1536   84.1791   10.0450 O.2     1  UNL1       -0.2698
     13 N          61.9356   84.9252   12.2152 N.am    1  UNL1       -0.2803
     14 H          61.3284   85.5432   12.6826 H       1  UNL1        0.1552
     15 C          62.5681   83.7878   12.9612 C.ar    1  UNL1        0.0537
     16 C          62.3885   82.3801   12.4753 C.ar    1  UNL1        0.0353
     17 C          63.0209   81.2427   13.2212 C.ar    1  UNL1        0.1002
     18 N          63.8330   81.5131   14.4530 N.ar    1  UNL1       -0.2422
     19 C          64.0126   82.9208   14.9389 C.ar    1  UNL1        0.1002
     20 C          63.3801   84.0581   14.1930 C.ar    1  UNL1        0.0353
     21 O          63.0082   91.9188   11.4123 O.3     1  UNL1       -0.4534
     22 C          66.7841   92.3250   15.2629 C.ar    1  UNL1        0.1739
     23 C          67.4395   92.7697   13.9891 C.ar    1  UNL1        0.0592
     24 C          66.6593   92.7793   12.7079 C.ar    1  UNL1        0.0875
     25 N          67.3147   93.2239   11.4340 N.ar    1  UNL1       -0.2435
     26 C          66.5346   93.2335   10.1529 C.ar    1  UNL1        0.1020
     27 C          65.0991   92.7985   10.1457 C.ar    1  UNL1        0.0581
     28 C          64.4437   92.3538   11.4195 C.ar    1  UNL1        0.1483
     29 C          65.2238   92.3442   12.7006 C.ar    1  UNL1        0.0554
     30 C          64.5685   91.8996   13.9746 C.ar    1  UNL1        0.0446
     31 C          65.3486   91.8900   15.2557 C.ar    1  UNL1        0.1726
     32 C          69.0630   92.3653   16.5099 C.3     1  UNL1        0.2526
     33 O          67.5642   92.3154   16.5441 O.3     1  UNL1       -0.4683
     34 O          64.6932   91.4454   16.5296 O.3     1  UNL1       -0.4684
     35 C          63.5072   90.5283   16.4824 C.3     1  UNL1        0.2526
@<TRIPOS>BOND
     1    32    33    1
     2    33    22    1
     3    22    23   ar
     4    23    24   ar
     5    24    25   ar
     6    25    26   ar
     7    26    27   ar
     8    27    28   ar
     9    28    21    1
    10    21     1    1
    11     1     2   ar
    12     2     3   ar
    13     3     4   ar
    14     4     5   ar
    15     5    11    1
    16    11    12    2
    17    11    13   am
    18    13    15    1
    19    15    16   ar
    20    16    17   ar
    21    17    18   ar
    22    18    19   ar
    23    19    20   ar
    24     5     6   ar
    25     6     7   ar
    26     7     8   ar
    27     8     9   ar
    28     9    10   ar
    29    28    29   ar
    30    29    30   ar
    31    30    31   ar
    32    31    34    1
    33    34    35    1
    34    31    22   ar
    35    29    24   ar
    36    10     1   ar
    37     9     4   ar
    38    20    15   ar
    39    13    14    1
@<TRIPOS>MOLECULE
*****
 35 39 0 0 0
SMALL
GASTEIGER

@<TRIPOS>ATOM
      1 C          64.2629   89.9890   14.9204 C.ar    1  UNL1        0.1453
      2 C          64.5138   88.8812   13.9406 C.ar    1  UNL1        0.0375
      3 C          64.2025   87.4628   14.3162 C.ar    1  UNL1        0.0033
      4 C          63.6402   87.1520   15.6717 C.ar    1  UNL1        0.0046
      5 C          63.3289   85.7335   16.0473 C.ar    1  UNL1        0.0537
      6 C          62.7666   85.4228   17.4027 C.ar    1  UNL1        0.0045
      7 C          62.5157   86.5305   18.3826 C.ar    1  UNL1        0.0001
      8 C          62.8270   87.9489   18.0070 C.ar    1  UNL1        0.0001
      9 C          63.3893   88.2597   16.6515 C.ar    1  UNL1        0.0032
     10 C          63.7006   89.6782   16.2759 C.ar    1  UNL1        0.0375
     11 C          63.5798   84.6259   15.0674 C.2     1  UNL1        0.2495
     12 O          64.9436   84.0097   14.9651 O.2     1  UNL1       -0.2698
     13 N          62.4670   84.1344   14.1899 N.am    1  UNL1       -0.2803
     14 H          61.5719   84.5389   14.2571 H       1  UNL1        0.1552
     15 C          62.7179   83.0267   13.2100 C.ar    1  UNL1        0.0537
     16 C          63.2883   83.3366   11.8578 C.ar    1  UNL1        0.0353
     17 C          63.5392   82.2290   10.8779 C.ar    1  UNL1        0.1002
     18 N          63.2197   80.8115   11.2503 N.ar    1  UNL1       -0.2422
     19 C          62.6493   80.5017   12.6025 C.ar    1  UNL1        0.1002
     20 C          62.3984   81.6093   13.5824 C.ar    1  UNL1        0.0353
     21 O          64.5743   91.4074   14.5448 O.3     1  UNL1       -0.4534
     22 C          61.6674   90.2161   10.1425 C.ar    1  UNL1        0.1739
     23 C          62.7620   91.1327    9.6827 C.ar    1  UNL1        0.0592
     24 C          63.7625   91.6597   10.6683 C.ar    1  UNL1        0.0875
     25 N          64.8571   92.5764   10.2085 N.ar    1  UNL1       -0.2435
     26 C          65.8575   93.1033   11.1942 C.ar    1  UNL1        0.1020
     27 C          65.7632   92.7137   12.6396 C.ar    1  UNL1        0.0581
     28 C          64.6685   91.7970   13.0994 C.ar    1  UNL1        0.1483
     29 C          63.6682   91.2701   12.1138 C.ar    1  UNL1        0.0554
     30 C          62.5734   90.3534   12.5735 C.ar    1  UNL1        0.0446
     31 C          61.5731   89.8264   11.5879 C.ar    1  UNL1        0.1726
     32 C          60.6085   88.2198    8.8603 C.3     1  UNL1        0.2526
     33 O          60.6669   89.6891    9.1568 O.3     1  UNL1       -0.4683
     34 O          60.4783   88.9097   12.0477 O.3     1  UNL1       -0.4684
     35 C          59.0908   89.4418   12.2516 C.3     1  UNL1        0.2526
@<TRIPOS>BOND
     1    32    33    1
     2    33    22    1
     3    22    23   ar
     4    23    24   ar
     5    24    25   ar
     6    25    26   ar
     7    26    27   ar
     8    27    28   ar
     9    28    21    1
    10    21     1    1
    11     1     2   ar
    12     2     3   ar
    13     3     4   ar
    14     4     5   ar
    15     5    11    1
    16    11    12    2
    17    11    13   am
    18    13    15    1
    19    15    16   ar
    20    16    17   ar
    21    17    18   ar
    22    18    19   ar
    23    19    20   ar
    24     5     6   ar
    25     6     7   ar
    26     7     8   ar
    27     8     9   ar
    28     9    10   ar
    29    28    29   ar
    30    29    30   ar
    31    30    31   ar
    32    31    34    1
    33    34    35    1
    34    31    22   ar
    35    29    24   ar
    36    10     1   ar
    37     9     4   ar
    38    20    15   ar
    39    13    14    1
@<TRIPOS>MOLECULE
*****
 35 39 0 0 0
SMALL
GASTEIGER

@<TRIPOS>ATOM
      1 C          63.9033   89.4110   14.5825 C.ar    1  UNL1        0.1453
      2 C          63.4519   89.1705   13.1724 C.ar    1  UNL1        0.0375
      3 C          63.3047   87.7681   12.6609 C.ar    1  UNL1        0.0033
      4 C          63.6089   86.6062   13.5594 C.ar    1  UNL1        0.0046
      5 C          63.4617   85.2038   13.0478 C.ar    1  UNL1        0.0537
      6 C          63.7659   84.0419   13.9464 C.ar    1  UNL1        0.0045
      7 C          64.2173   84.2824   15.3566 C.ar    1  UNL1        0.0001
      8 C          64.3645   85.6848   15.8681 C.ar    1  UNL1        0.0001
      9 C          64.0603   86.8467   14.9695 C.ar    1  UNL1        0.0032
     10 C          64.2075   88.2491   15.4811 C.ar    1  UNL1        0.0375
     11 C          63.0103   84.9634   11.6378 C.2     1  UNL1        0.2495
     12 O          63.1788   83.6083   11.0171 O.2     1  UNL1       -0.2698
     13 N          62.3904   86.0780   10.8484 N.am    1  UNL1       -0.2803
     14 H          62.2798   86.9674   11.2558 H       1  UNL1        0.1552
     15 C          61.9390   85.8376    9.4382 C.ar    1  UNL1        0.0537
     16 C          60.5522   86.2256    9.0182 C.ar    1  UNL1        0.0353
     17 C          60.1007   85.9852    7.6082 C.ar    1  UNL1        0.1002
     18 N          61.0361   85.3569    6.6181 N.ar    1  UNL1       -0.2422
     19 C          62.4228   84.9689    7.0380 C.ar    1  UNL1        0.1002
     20 C          62.8743   85.2093    8.4481 C.ar    1  UNL1        0.0353
     21 O          64.0505   90.8134   15.0940 O.3     1  UNL1       -0.4534
     22 C          66.1811   93.1222   10.6918 C.ar    1  UNL1        0.1739
     23 C          67.1533   93.3745   11.8058 C.ar    1  UNL1        0.0592
     24 C          66.8638   92.8604   13.1849 C.ar    1  UNL1        0.0875
     25 N          67.8360   93.1128   14.2989 N.ar    1  UNL1       -0.2435
     26 C          67.5464   92.5986   15.6779 C.ar    1  UNL1        0.1020
     27 C          66.2846   91.8322   15.9430 C.ar    1  UNL1        0.0581
     28 C          65.3123   91.5798   14.8290 C.ar    1  UNL1        0.1483
     29 C          65.6019   92.0939   13.4500 C.ar    1  UNL1        0.0554
     30 C          64.6296   91.8416   12.3359 C.ar    1  UNL1        0.0446
     31 C          64.9192   92.3557   10.9569 C.ar    1  UNL1        0.1726
     32 C          67.7069   94.4470    9.0587 C.3     1  UNL1        0.2526
     33 O          66.4707   93.6363    9.3127 O.3     1  UNL1       -0.4683
     34 O          63.9470   92.1034    9.8428 O.3     1  UNL1       -0.4684
     35 C          62.8403   91.1073   10.0244 C.3     1  UNL1        0.2526
@<TRIPOS>BOND
     1    32    33    1
     2    33    22    1
     3    22    23   ar
     4    23    24   ar
     5    24    25   ar
     6    25    26   ar
     7    26    27   ar
     8    27    28   ar
     9    28    21    1
    10    21     1    1
    11     1     2   ar
    12     2     3   ar
    13     3     4   ar
    14     4     5   ar
    15     5    11    1
    16    11    12    2
    17    11    13   am
    18    13    15    1
    19    15    16   ar
    20    16    17   ar
    21    17    18   ar
    22    18    19   ar
    23    19    20   ar
    24     5     6   ar
    25     6     7   ar
    26     7     8   ar
    27     8     9   ar
    28     9    10   ar
    29    28    29   ar
    30    29    30   ar
    31    30    31   ar
    32    31    34    1
    33    34    35    1
    34    31    22   ar
    35    29    24   ar
    36    10     1   ar
    37     9     4   ar
    38    20    15   ar
    39    13    14    1
@<TRIPOS>MOLECULE
*****
 35 39 0 0 0
SMALL
GASTEIGER

@<TRIPOS>ATOM
      1 C          63.8802   89.7514   13.3824 C.ar    1  UNL1        0.1453
      2 C          63.8640   90.7237   12.2402 C.ar    1  UNL1        0.0375
      3 C          64.7124   91.9595   12.2952 C.ar    1  UNL1        0.0033
      4 C          65.5769   92.2231   13.4923 C.ar    1  UNL1        0.0046
      5 C          66.4253   93.4590   13.5473 C.ar    1  UNL1        0.0537
      6 C          67.2898   93.7226   14.7444 C.ar    1  UNL1        0.0045
      7 C          67.3059   92.7503   15.8866 C.ar    1  UNL1        0.0001
      8 C          66.4576   91.5145   15.8316 C.ar    1  UNL1        0.0001
      9 C          65.5931   91.2509   14.6345 C.ar    1  UNL1        0.0032
     10 C          64.7447   90.0150   14.5795 C.ar    1  UNL1        0.0375
     11 C          66.4091   94.4312   12.4052 C.2     1  UNL1        0.2495
     12 O          66.2234   95.8959   12.6696 O.2     1  UNL1       -0.2698
     13 N          66.5785   93.9386   10.9985 N.am    1  UNL1       -0.2803
     14 H          66.7003   92.9772   10.8250 H       1  UNL1        0.1552
     15 C          66.5623   94.9108    9.8563 C.ar    1  UNL1        0.0537
     16 C          65.4118   95.8598    9.6954 C.ar    1  UNL1        0.0353
     17 C          65.3956   96.8319    8.5533 C.ar    1  UNL1        0.1002
     18 N          66.5298   96.8552    7.5720 N.ar    1  UNL1       -0.2422
     19 C          67.6803   95.9062    7.7329 C.ar    1  UNL1        0.1002
     20 C          67.6965   94.9340    8.8750 C.ar    1  UNL1        0.0353
     21 O          63.0319   88.5156   13.3274 O.3     1  UNL1       -0.4534
     22 C          63.2322   83.5515   11.1900 C.ar    1  UNL1        0.1739
     23 C          63.9058   83.4564   12.5268 C.ar    1  UNL1        0.0592
     24 C          64.0242   84.6736   13.3954 C.ar    1  UNL1        0.0875
     25 N          64.6978   84.5784   14.7322 N.ar    1  UNL1       -0.2435
     26 C          64.8162   85.7956   15.6008 C.ar    1  UNL1        0.1020
     27 C          64.2608   87.1080   15.1325 C.ar    1  UNL1        0.0581
     28 C          63.5872   87.2032   13.7957 C.ar    1  UNL1        0.1483
     29 C          63.4689   85.9860   12.9272 C.ar    1  UNL1        0.0554
     30 C          62.7952   86.0811   11.5903 C.ar    1  UNL1        0.0446
     31 C          62.6768   84.8639   10.7217 C.ar    1  UNL1        0.1726
     32 C          63.3280   80.9705   10.9082 C.3     1  UNL1        0.2526
     33 O          63.1138   82.3343   10.3214 O.3     1  UNL1       -0.4683
     34 O          62.0032   84.9591    9.3849 O.3     1  UNL1       -0.4684
     35 C          62.7265   85.5721    8.2225 C.3     1  UNL1        0.2526
@<TRIPOS>BOND
     1    32    33    1
     2    33    22    1
     3    22    23   ar
     4    23    24   ar
     5    24    25   ar
     6    25    26   ar
     7    26    27   ar
     8    27    28   ar
     9    28    21    1
    10    21     1    1
    11     1     2   ar
    12     2     3   ar
    13     3     4   ar
    14     4     5   ar
    15     5    11    1
    16    11    12    2
    17    11    13   am
    18    13    15    1
    19    15    16   ar
    20    16    17   ar
    21    17    18   ar
    22    18    19   ar
    23    19    20   ar
    24     5     6   ar
    25     6     7   ar
    26     7     8   ar
    27     8     9   ar
    28     9    10   ar
    29    28    29   ar
    30    29    30   ar
    31    30    31   ar
    32    31    34    1
    33    34    35    1
    34    31    22   ar
    35    29    24   ar
    36    10     1   ar
    37     9     4   ar
    38    20    15   ar
    39    13    14    1
@<TRIPOS>MOLECULE
*****
 35 39 0 0 0
SMALL
GASTEIGER

@<TRIPOS>ATOM
      1 C          63.3240   89.9051   13.1086 C.ar    1  UNL1        0.1453
      2 C          63.4690   88.5925   12.3971 C.ar    1  UNL1        0.0375
      3 C          63.4990   87.3139   13.1807 C.ar    1  UNL1        0.0033
      4 C          63.3840   87.3476   14.6759 C.ar    1  UNL1        0.0046
      5 C          63.4140   86.0689   15.4595 C.ar    1  UNL1        0.0537
      6 C          63.2989   86.1027   16.9547 C.ar    1  UNL1        0.0045
      7 C          63.1539   87.4152   17.6663 C.ar    1  UNL1        0.0001
      8 C          63.1239   88.6939   16.8827 C.ar    1  UNL1        0.0001
      9 C          63.2389   88.6601   15.3875 C.ar    1  UNL1        0.0032
     10 C          63.2089   89.9388   14.6038 C.ar    1  UNL1        0.0375
     11 C          63.5590   84.7565   14.7479 C.2     1  UNL1        0.2495
     12 O          64.9177   84.1468   14.5682 O.2     1  UNL1       -0.2698
     13 N          62.3454   84.0536   14.2160 N.am    1  UNL1       -0.2803
     14 H          61.4536   84.4537   14.3339 H       1  UNL1        0.1552
     15 C          62.4903   82.7411   13.5043 C.ar    1  UNL1        0.0537
     16 C          62.9687   82.7074   12.0830 C.ar    1  UNL1        0.0353
     17 C          63.1137   81.3950   11.3714 C.ar    1  UNL1        0.1002
     18 N          62.7804   80.1163   12.0811 N.ar    1  UNL1       -0.2422
     19 C          62.3021   80.1499   13.5024 C.ar    1  UNL1        0.1002
     20 C          62.1570   81.4623   14.2140 C.ar    1  UNL1        0.0353
     21 O          63.2940   91.1837   12.3250 O.3     1  UNL1       -0.4534
     22 C          67.3144   93.3404   15.2293 C.ar    1  UNL1        0.1739
     23 C          67.6840   93.5461   13.7902 C.ar    1  UNL1        0.0592
     24 C          66.7713   93.0583   12.7043 C.ar    1  UNL1        0.0875
     25 N          67.1410   93.2640   11.2652 N.ar    1  UNL1       -0.2435
     26 C          66.2283   92.7762   10.1794 C.ar    1  UNL1        0.1020
     27 C          64.9459   92.0828   10.5327 C.ar    1  UNL1        0.0581
     28 C          64.5763   91.8771   11.9718 C.ar    1  UNL1        0.1483
     29 C          65.4890   92.3649   13.0576 C.ar    1  UNL1        0.0554
     30 C          65.1194   92.1592   14.4968 C.ar    1  UNL1        0.0446
     31 C          66.0320   92.6470   15.5826 C.ar    1  UNL1        0.1726
     32 C          69.6605   94.1430   16.0050 C.3     1  UNL1        0.2526
     33 O          68.2271   93.8282   16.3152 O.3     1  UNL1       -0.4683
     34 O          65.6624   92.4414   17.0218 O.3     1  UNL1       -0.4684
     35 C          64.2228   92.2786   17.4105 C.3     1  UNL1        0.2526
@<TRIPOS>BOND
     1    32    33    1
     2    33    22    1
     3    22    23   ar
     4    23    24   ar
     5    24    25   ar
     6    25    26   ar
     7    26    27   ar
     8    27    28   ar
     9    28    21    1
    10    21     1    1
    11     1     2   ar
    12     2     3   ar
    13     3     4   ar
    14     4     5   ar
    15     5    11    1
    16    11    12    2
    17    11    13   am
    18    13    15    1
    19    15    16   ar
    20    16    17   ar
    21    17    18   ar
    22    18    19   ar
    23    19    20   ar
    24     5     6   ar
    25     6     7   ar
    26     7     8   ar
    27     8     9   ar
    28     9    10   ar
    29    28    29   ar
    30    29    30   ar
    31    30    31   ar
    32    31    34    1
    33    34    35    1
    34    31    22   ar
    35    29    24   ar
    36    10     1   ar
    37     9     4   ar
    38    20    15   ar
    39    13    14    1
@<TRIPOS>MOLECULE
*****
 35 39 0 0 0
SMALL
GASTEIGER

@<TRIPOS>ATOM
      1 C          63.9496   89.5127   14.0385 C.ar    1  UNL1        0.1453
      2 C          64.3243   88.0998   14.3753 C.ar    1  UNL1        0.0375
      3 C          63.8225   86.9685   13.5279 C.ar    1  UNL1        0.0033
      4 C          62.9461   87.2499   12.3436 C.ar    1  UNL1        0.0046
      5 C          62.4444   86.1185   11.4961 C.ar    1  UNL1        0.0537
      6 C          61.5679   86.3999   10.3117 C.ar    1  UNL1        0.0045
      7 C          61.1933   87.8128    9.9749 C.ar    1  UNL1        0.0001
      8 C          61.6950   88.9442   10.8223 C.ar    1  UNL1        0.0001
      9 C          62.5714   88.6627   12.0067 C.ar    1  UNL1        0.0032
     10 C          63.0732   89.7942   12.8541 C.ar    1  UNL1        0.0375
     11 C          62.8190   84.7057   11.8330 C.2     1  UNL1        0.2495
     12 O          63.6569   83.9046   10.8810 O.2     1  UNL1       -0.2698
     13 N          62.3559   84.0940   13.1219 N.am    1  UNL1       -0.2803
     14 H          61.8060   84.6198   13.7467 H       1  UNL1        0.1552
     15 C          62.7305   82.6811   13.4588 C.ar    1  UNL1        0.0537
     16 C          64.0068   82.3987   14.1946 C.ar    1  UNL1        0.0353
     17 C          64.3815   80.9860   14.5315 C.ar    1  UNL1        0.1002
     18 N          63.4799   79.8555   14.1327 N.ar    1  UNL1       -0.2422
     19 C          62.2036   80.1378   13.3970 C.ar    1  UNL1        0.1002
     20 C          61.8289   81.5506   13.0600 C.ar    1  UNL1        0.0353
     21 O          64.4514   90.6441   14.8859 O.3     1  UNL1       -0.4534
     22 C          66.4679   93.2224   10.5806 C.ar    1  UNL1        0.1739
     23 C          67.5604   93.2113   11.6082 C.ar    1  UNL1        0.0592
     24 C          67.3295   92.5640   12.9416 C.ar    1  UNL1        0.0875
     25 N          68.4220   92.5529   13.9692 N.ar    1  UNL1       -0.2435
     26 C          68.1910   91.9056   15.3025 C.ar    1  UNL1        0.1020
     27 C          66.8675   91.2693   15.6080 C.ar    1  UNL1        0.0581
     28 C          65.7749   91.2804   14.5804 C.ar    1  UNL1        0.1483
     29 C          66.0059   91.9277   13.2471 C.ar    1  UNL1        0.0554
     30 C          64.9133   91.9388   12.2194 C.ar    1  UNL1        0.0446
     31 C          65.1443   92.5861   10.8861 C.ar    1  UNL1        0.1726
     32 C          67.6306   95.0397    9.1329 C.3     1  UNL1        0.2526
     33 O          66.6988   93.8698    9.2473 O.3     1  UNL1       -0.4683
     34 O          64.0517   92.5972    9.8584 O.3     1  UNL1       -0.4684
     35 C          63.0584   91.4744    9.8076 C.3     1  UNL1        0.2526
@<TRIPOS>BOND
     1    32    33    1
     2    33    22    1
     3    22    23   ar
     4    23    24   ar
     5    24    25   ar
     6    25    26   ar
     7    26    27   ar
     8    27    28   ar
     9    28    21    1
    10    21     1    1
    11     1     2   ar
    12     2     3   ar
    13     3     4   ar
    14     4     5   ar
    15     5    11    1
    16    11    12    2
    17    11    13   am
    18    13    15    1
    19    15    16   ar
    20    16    17   ar
    21    17    18   ar
    22    18    19   ar
    23    19    20   ar
    24     5     6   ar
    25     6     7   ar
    26     7     8   ar
    27     8     9   ar
    28     9    10   ar
    29    28    29   ar
    30    29    30   ar
    31    30    31   ar
    32    31    34    1
    33    34    35    1
    34    31    22   ar
    35    29    24   ar
    36    10     1   ar
    37     9     4   ar
    38    20    15   ar
    39    13    14    1
@<TRIPOS>MOLECULE
*****
 35 39 0 0 0
SMALL
GASTEIGER

@<TRIPOS>ATOM
      1 C          63.3837   85.0234   13.9925 C.ar    1  UNL1        0.1453
      2 C          63.8405   86.3086   13.3683 C.ar    1  UNL1        0.0375
      3 C          63.8869   87.5649   14.1865 C.ar    1  UNL1        0.0033
      4 C          63.4764   87.5360   15.6290 C.ar    1  UNL1        0.0046
      5 C          63.5228   88.7924   16.4472 C.ar    1  UNL1        0.0537
      6 C          63.1123   88.7635   17.8897 C.ar    1  UNL1        0.0045
      7 C          62.6554   87.4783   18.5139 C.ar    1  UNL1        0.0001
      8 C          62.6091   86.2220   17.6956 C.ar    1  UNL1        0.0001
      9 C          63.0196   86.2509   16.2532 C.ar    1  UNL1        0.0032
     10 C          62.9732   84.9945   15.4349 C.ar    1  UNL1        0.0375
     11 C          63.9796   90.0775   15.8230 C.2     1  UNL1        0.2495
     12 O          63.3697   91.3787   16.2531 O.2     1  UNL1       -0.2698
     13 N          65.0464   90.0615   14.7687 N.am    1  UNL1       -0.2803
     14 H          65.4468   89.2075   14.4864 H       1  UNL1        0.1552
     15 C          65.5033   91.3467   14.1444 C.ar    1  UNL1        0.0537
     16 C          65.0931   91.6868   12.7423 C.ar    1  UNL1        0.0353
     17 C          65.5500   92.9719   12.1180 C.ar    1  UNL1        0.1002
     18 N          66.4171   93.9169   12.8959 N.ar    1  UNL1       -0.2422
     19 C          66.8273   93.5767   14.2980 C.ar    1  UNL1        0.1002
     20 C          66.3705   92.2916   14.9223 C.ar    1  UNL1        0.0353
     21 O          63.3373   83.7671   13.1742 O.3     1  UNL1       -0.4534
     22 C          61.0959   86.9079    9.3846 C.ar    1  UNL1        0.1739
     23 C          62.0002   85.9583    8.6564 C.ar    1  UNL1        0.0592
     24 C          62.7867   84.9356    9.4217 C.ar    1  UNL1        0.0875
     25 N          63.6910   83.9859    8.6935 N.ar    1  UNL1       -0.2435
     26 C          64.4774   82.9633    9.4588 C.ar    1  UNL1        0.1020
     27 C          64.3595   82.8904   10.9524 C.ar    1  UNL1        0.0581
     28 C          63.4552   83.8400   11.6807 C.ar    1  UNL1        0.1483
     29 C          62.6688   84.8626   10.9153 C.ar    1  UNL1        0.0554
     30 C          61.7644   85.8124   11.6435 C.ar    1  UNL1        0.0446
     31 C          60.9780   86.8350   10.8782 C.ar    1  UNL1        0.1726
     32 C          59.1348   87.5058    7.7887 C.3     1  UNL1        0.2526
     33 O          60.3095   87.9306    8.6193 O.3     1  UNL1       -0.4683
     34 O          60.0737   87.7847   11.6064 O.3     1  UNL1       -0.4684
     35 C          60.3976   89.2488   11.6441 C.3     1  UNL1        0.2526
@<TRIPOS>BOND
     1    32    33    1
     2    33    22    1
     3    22    23   ar
     4    23    24   ar
     5    24    25   ar
     6    25    26   ar
     7    26    27   ar
     8    27    28   ar
     9    28    21    1
    10    21     1    1
    11     1     2   ar
    12     2     3   ar
    13     3     4   ar
    14     4     5   ar
    15     5    11    1
    16    11    12    2
    17    11    13   am
    18    13    15    1
    19    15    16   ar
    20    16    17   ar
    21    17    18   ar
    22    18    19   ar
    23    19    20   ar
    24     5     6   ar
    25     6     7   ar
    26     7     8   ar
    27     8     9   ar
    28     9    10   ar
    29    28    29   ar
    30    29    30   ar
    31    30    31   ar
    32    31    34    1
    33    34    35    1
    34    31    22   ar
    35    29    24   ar
    36    10     1   ar
    37     9     4   ar
    38    20    15   ar
    39    13    14    1
