@<TRIPOS>MOLECULE
*****
 27 30 0 0 0
SMALL
GASTEIGER

@<TRIPOS>ATOM
      1 C          65.2822   92.6360   11.3306 C.ar    1  UNL1        0.0664
      2 C          64.1456   91.8919   10.6948 C.ar    1  UNL1        0.0058
      3 C          63.4500   90.7979   11.4494 C.ar    1  UNL1        0.0017
      4 C          63.8910   90.4482   12.8397 C.ar    1  UNL1        0.0013
      5 C          65.0277   91.1923   13.4756 C.ar    1  UNL1        0.0142
      6 C          65.7232   92.2862   12.7210 C.ar    1  UNL1        0.0459
      7 N          66.8599   93.0304   13.3567 N.pl3   1  UNL1       -0.3569
      8 H          67.1494   92.8008   14.2693 H       1  UNL1        0.1424
      9 H          67.3164   93.7484   12.8614 H       1  UNL1        0.1424
     10 C          62.3132   90.0537   10.8136 C.ar    1  UNL1        0.0190
     11 C          60.9260   90.6225   10.8586 C.ar    1  UNL1        0.1002
     12 N          59.7894   89.8782   10.2228 N.ar    1  UNL1       -0.2297
     13 C          60.0400   88.5653    9.5420 C.ar    1  UNL1        0.1245
     14 C          61.4273   87.9966    9.4970 C.ar    1  UNL1        0.0102
     15 C          62.5639   88.7408   10.1328 C.ar    1  UNL1        0.0001
     16 C          61.3694   86.6914    8.7602 C.3     1  UNL1        0.0395
     17 C          61.5434   85.3749    8.0625 C.3     1  UNL1        0.0058
     18 C          63.0118   85.4074    8.3675 C.3     1  UNL1        0.0008
     19 C          62.8378   86.7239    9.0652 C.3     1  UNL1        0.0058
     20 C          59.9465   86.4534    8.3498 C.3     1  UNL1        0.0922
     21 N          59.1248   87.6116    8.8330 N.pl3   1  UNL1       -0.3181
     22 H          58.1551   87.7257    8.7070 H       1  UNL1        0.1482
     23 C          67.9652   94.5424    9.1131 C.3     1  UNL1        0.1152
     24 N          67.2697   93.4483    9.8677 N.am    1  UNL1       -0.2725
     25 C          67.8660   92.0728    9.9139 C.3     1  UNL1        0.1152
     26 C          65.9778   93.7300   10.5760 C.2     1  UNL1        0.2503
     27 O          65.3814   95.1056   10.5297 O.2     1  UNL1       -0.2699
@<TRIPOS>BOND
     1    23    24    1
     2    24    25    1
     3    24    26   am
     4    26    27    2
     5    26     1    1
     6     1     2   ar
     7     2     3   ar
     8     3    10    1
     9    10    11   ar
    10    11    12   ar
    11    12    13   ar
    12    13    14   ar
    13    14    15   ar
    14    14    16    1
    15    16    17    1
    16    17    18    1
    17    18    19    1
    18    16    20    1
    19    20    21    1
    20     3     4   ar
    21     4     5   ar
    22     5     6   ar
    23     6     7    1
    24     6     1   ar
    25    15    10   ar
    26    19    16    1
    27    21    13    1
    28    21    22    1
    29     7     8    1
    30     7     9    1
@<TRIPOS>MOLECULE
*****
 27 30 0 0 0
SMALL
GASTEIGER

@<TRIPOS>ATOM
      1 C          64.2148   89.4464   14.7082 C.ar    1  UNL1        0.0664
      2 C          64.2589   88.0006   14.3113 C.ar    1  UNL1        0.0058
      3 C          63.7214   86.9515   15.2390 C.ar    1  UNL1        0.0017
      4 C          63.1397   87.3484   16.5634 C.ar    1  UNL1        0.0013
      5 C          63.0956   88.7942   16.9603 C.ar    1  UNL1        0.0142
      6 C          63.6332   89.8433   16.0327 C.ar    1  UNL1        0.0459
      7 N          63.5891   91.2891   16.4294 N.pl3   1  UNL1       -0.3569
      8 H          63.2073   91.5496   17.2987 H       1  UNL1        0.1424
      9 H          63.9419   91.9777   15.8206 H       1  UNL1        0.1424
     10 C          63.7655   85.5056   14.8422 C.ar    1  UNL1        0.0190
     11 C          63.8648   84.4416   15.8949 C.ar    1  UNL1        0.1002
     12 N          63.9089   82.9958   15.4980 N.ar    1  UNL1       -0.2297
     13 C          63.8537   82.6139   14.0485 C.ar    1  UNL1        0.1245
     14 C          63.7544   83.6778   12.9958 C.ar    1  UNL1        0.0102
     15 C          63.7103   85.1236   13.3927 C.ar    1  UNL1        0.0001
     16 C          63.7176   83.0029   11.6568 C.3     1  UNL1        0.0395
     17 C          63.6668   82.5457   10.2290 C.3     1  UNL1        0.0058
     18 C          63.5812   83.9728    9.7750 C.3     1  UNL1        0.0008
     19 C          63.6320   84.4301   11.2027 C.3     1  UNL1        0.0058
     20 C          63.7942   81.5219   11.8818 C.3     1  UNL1        0.0922
     21 N          63.8783   81.2814   13.3600 N.pl3   1  UNL1       -0.3181
     22 H          63.9390   80.4033   13.8009 H       1  UNL1        0.1482
     23 C          64.5399   91.8953   11.6022 C.3     1  UNL1        0.1152
     24 N          64.0023   90.8463   12.5298 N.am    1  UNL1       -0.2725
     25 C          62.7146   90.1481   12.2067 C.3     1  UNL1        0.1152
     26 C          64.7524   90.4955   13.7805 C.2     1  UNL1        0.2503
     27 O          66.0401   91.1938   14.1036 O.2     1  UNL1       -0.2699
@<TRIPOS>BOND
     1    23    24    1
     2    24    25    1
     3    24    26   am
     4    26    27    2
     5    26     1    1
     6     1     2   ar
     7     2     3   ar
     8     3    10    1
     9    10    11   ar
    10    11    12   ar
    11    12    13   ar
    12    13    14   ar
    13    14    15   ar
    14    14    16    1
    15    16    17    1
    16    17    18    1
    17    18    19    1
    18    16    20    1
    19    20    21    1
    20     3     4   ar
    21     4     5   ar
    22     5     6   ar
    23     6     7    1
    24     6     1   ar
    25    15    10   ar
    26    19    16    1
    27    21    13    1
    28    21    22    1
    29     7     8    1
    30     7     9    1
@<TRIPOS>MOLECULE
*****
 27 30 0 0 0
SMALL
GASTEIGER

@<TRIPOS>ATOM
      1 C          65.0882   91.0194   14.1862 C.ar    1  UNL1        0.0664
      2 C          64.8524   89.6253   14.6868 C.ar    1  UNL1        0.0058
      3 C          64.0765   88.6500   13.8520 C.ar    1  UNL1        0.0017
      4 C          63.5366   89.0688   12.5168 C.ar    1  UNL1        0.0013
      5 C          63.7724   90.4630   12.0162 C.ar    1  UNL1        0.0142
      6 C          64.5483   91.4383   12.8509 C.ar    1  UNL1        0.0459
      7 N          64.7842   92.8325   12.3504 N.pl3   1  UNL1       -0.3569
      8 H          64.4298   93.1074   11.4740 H       1  UNL1        0.1424
      9 H          65.2934   93.4726   12.8983 H       1  UNL1        0.1424
     10 C          63.8406   87.2557   14.3526 C.ar    1  UNL1        0.0190
     11 C          63.8287   86.9801   15.8270 C.ar    1  UNL1        0.1002
     12 N          63.5928   85.5859   16.3275 N.ar    1  UNL1       -0.2297
     13 C          63.3687   84.4673   15.3536 C.ar    1  UNL1        0.1245
     14 C          63.3806   84.7428   13.8792 C.ar    1  UNL1        0.0102
     15 C          63.6165   86.1370   13.3787 C.ar    1  UNL1        0.0001
     16 C          63.1317   83.4483   13.1637 C.3     1  UNL1        0.0395
     17 C          62.9004   82.2807   12.2508 C.3     1  UNL1        0.0058
     18 C          63.0315   83.1849   11.0611 C.3     1  UNL1        0.0008
     19 C          63.2628   84.3525   11.9740 C.3     1  UNL1        0.0058
     20 C          62.9660   82.3726   14.1958 C.3     1  UNL1        0.0922
     21 N          63.1125   83.0023   15.5493 N.pl3   1  UNL1       -0.3181
     22 H          63.0513   82.5361   16.4142 H       1  UNL1        0.1482
     23 C          68.0538   93.3120   15.4899 C.3     1  UNL1        0.1152
     24 N          67.2780   92.3367   14.6550 N.am    1  UNL1       -0.2725
     25 C          67.9161   91.7034   13.4543 C.3     1  UNL1        0.1152
     26 C          65.8641   91.9947   15.0210 C.2     1  UNL1        0.2503
     27 O          65.2260   92.6281   16.2218 O.2     1  UNL1       -0.2699
@<TRIPOS>BOND
     1    23    24    1
     2    24    25    1
     3    24    26   am
     4    26    27    2
     5    26     1    1
     6     1     2   ar
     7     2     3   ar
     8     3    10    1
     9    10    11   ar
    10    11    12   ar
    11    12    13   ar
    12    13    14   ar
    13    14    15   ar
    14    14    16    1
    15    16    17    1
    16    17    18    1
    17    18    19    1
    18    16    20    1
    19    20    21    1
    20     3     4   ar
    21     4     5   ar
    22     5     6   ar
    23     6     7    1
    24     6     1   ar
    25    15    10   ar
    26    19    16    1
    27    21    13    1
    28    21    22    1
    29     7     8    1
    30     7     9    1
@<TRIPOS>MOLECULE
*****
 27 30 0 0 0
SMALL
GASTEIGER

@<TRIPOS>ATOM
      1 C          63.2999   83.6872   13.6178 C.ar    1  UNL1        0.0664
      2 C          62.7478   84.7480   12.7124 C.ar    1  UNL1        0.0058
      3 C          63.1816   86.1745   12.8768 C.ar    1  UNL1        0.0017
      4 C          64.1675   86.5400   13.9466 C.ar    1  UNL1        0.0013
      5 C          64.7196   85.4792   14.8520 C.ar    1  UNL1        0.0142
      6 C          64.2858   84.0528   14.6876 C.ar    1  UNL1        0.0459
      7 N          64.8378   82.9919   15.5930 N.pl3   1  UNL1       -0.3569
      8 H          65.4849   83.2318   16.2951 H       1  UNL1        0.1424
      9 H          64.5531   82.0556   15.4850 H       1  UNL1        0.1424
     10 C          62.6295   87.2354   11.9714 C.ar    1  UNL1        0.0190
     11 C          62.9435   88.6794   12.2293 C.ar    1  UNL1        0.1002
     12 N          62.3914   89.7402   11.3239 N.ar    1  UNL1       -0.2297
     13 C          61.5254   89.3572   10.1606 C.ar    1  UNL1        0.1245
     14 C          61.2114   87.9132    9.9027 C.ar    1  UNL1        0.0102
     15 C          61.7635   86.8524   10.8081 C.ar    1  UNL1        0.0001
     16 C          60.3358   87.8393    8.6871 C.3     1  UNL1        0.0395
     17 C          59.4637   87.5324    7.5058 C.3     1  UNL1        0.0058
     18 C          59.5557   86.0682    7.8182 C.3     1  UNL1        0.0008
     19 C          60.4278   86.3750    8.9995 C.3     1  UNL1        0.0058
     20 C          60.1085   89.2374    8.1937 C.3     1  UNL1        0.0922
     21 N          60.8437   90.1755    9.1044 N.pl3   1  UNL1       -0.3181
     22 H          60.8737   91.1562    9.0232 H       1  UNL1        0.1482
     23 C          62.7284   80.1025   12.0135 C.3     1  UNL1        0.1152
     24 N          63.1622   81.5290   12.1779 N.am    1  UNL1       -0.2725
     25 C          63.8921   82.2237   11.0667 C.3     1  UNL1        0.1152
     26 C          62.8661   82.2607   13.4534 C.2     1  UNL1        0.2503
     27 O          62.1362   81.5659   14.5646 O.2     1  UNL1       -0.2699
@<TRIPOS>BOND
     1    23    24    1
     2    24    25    1
     3    24    26   am
     4    26    27    2
     5    26     1    1
     6     1     2   ar
     7     2     3   ar
     8     3    10    1
     9    10    11   ar
    10    11    12   ar
    11    12    13   ar
    12    13    14   ar
    13    14    15   ar
    14    14    16    1
    15    16    17    1
    16    17    18    1
    17    18    19    1
    18    16    20    1
    19    20    21    1
    20     3     4   ar
    21     4     5   ar
    22     5     6   ar
    23     6     7    1
    24     6     1   ar
    25    15    10   ar
    26    19    16    1
    27    21    13    1
    28    21    22    1
    29     7     8    1
    30     7     9    1
@<TRIPOS>MOLECULE
*****
 27 30 0 0 0
SMALL
GASTEIGER

@<TRIPOS>ATOM
      1 C          63.1292   89.1327   12.2071 C.ar    1  UNL1        0.0664
      2 C          63.0976   87.6540   12.4573 C.ar    1  UNL1        0.0058
      3 C          63.7366   87.0883   13.6908 C.ar    1  UNL1        0.0017
      4 C          64.4071   88.0013   14.6742 C.ar    1  UNL1        0.0013
      5 C          64.4387   89.4799   14.4240 C.ar    1  UNL1        0.0142
      6 C          63.7997   90.0456   13.1904 C.ar    1  UNL1        0.0459
      7 N          63.8312   91.5242   12.9402 N.pl3   1  UNL1       -0.3569
      8 H          64.2713   92.1234   13.5856 H       1  UNL1        0.1424
      9 H          63.4119   91.8955   12.1306 H       1  UNL1        0.1424
     10 C          63.7051   85.6096   13.9411 C.ar    1  UNL1        0.0190
     11 C          63.8224   85.0832   15.3408 C.ar    1  UNL1        0.1002
     12 N          63.7908   83.6045   15.5909 N.ar    1  UNL1       -0.2297
     13 C          63.6420   82.6524   14.4415 C.ar    1  UNL1        0.1245
     14 C          63.5247   83.1788   13.0418 C.ar    1  UNL1        0.0102
     15 C          63.5562   84.6574   12.7916 C.ar    1  UNL1        0.0001
     16 C          63.3894   82.0068   12.1156 C.3     1  UNL1        0.0395
     17 C          63.2433   80.9953   11.0175 C.3     1  UNL1        0.0058
     18 C          63.1861   82.1016   10.0061 C.3     1  UNL1        0.0008
     19 C          63.3321   83.1131   11.1041 C.3     1  UNL1        0.0058
     20 C          63.4231   80.7560   12.9427 C.3     1  UNL1        0.0922
     21 N          63.5792   81.1549   14.3802 N.pl3   1  UNL1       -0.3181
     22 H          63.6313   80.5416   15.1486 H       1  UNL1        0.1482
     23 C          60.4589   89.8546    9.3614 C.3     1  UNL1        0.1152
     24 N          61.0978   89.2888   10.5950 N.am    1  UNL1       -0.2725
     25 C          60.3442   88.3136   11.4500 C.3     1  UNL1        0.1152
     26 C          62.4902   89.6984   10.9735 C.2     1  UNL1        0.2503
     27 O          63.2438   90.6736   10.1184 O.2     1  UNL1       -0.2699
@<TRIPOS>BOND
     1    23    24    1
     2    24    25    1
     3    24    26   am
     4    26    27    2
     5    26     1    1
     6     1     2   ar
     7     2     3   ar
     8     3    10    1
     9    10    11   ar
    10    11    12   ar
    11    12    13   ar
    12    13    14   ar
    13    14    15   ar
    14    14    16    1
    15    16    17    1
    16    17    18    1
    17    18    19    1
    18    16    20    1
    19    20    21    1
    20     3     4   ar
    21     4     5   ar
    22     5     6   ar
    23     6     7    1
    24     6     1   ar
    25    15    10   ar
    26    19    16    1
    27    21    13    1
    28    21    22    1
    29     7     8    1
    30     7     9    1
@<TRIPOS>MOLECULE
*****
 27 30 0 0 0
SMALL
GASTEIGER

@<TRIPOS>ATOM
      1 C          61.9735   87.0573   10.2560 C.ar    1  UNL1        0.0664
      2 C          62.8766   87.8985   11.1085 C.ar    1  UNL1        0.0058
      3 C          62.4398   89.2670   11.5404 C.ar    1  UNL1        0.0017
      4 C          61.1000   89.7942   11.1197 C.ar    1  UNL1        0.0013
      5 C          60.1969   88.9530   10.2673 C.ar    1  UNL1        0.0142
      6 C          60.6337   87.5845    9.8354 C.ar    1  UNL1        0.0459
      7 N          59.7306   86.7433    8.9828 N.pl3   1  UNL1       -0.3569
      8 H          58.8513   87.0893    8.7068 H       1  UNL1        0.1424
      9 H          60.0173   85.8451    8.6994 H       1  UNL1        0.1424
     10 C          63.3429   90.1083   12.3929 C.ar    1  UNL1        0.0190
     11 C          63.5222   89.7808   13.8457 C.ar    1  UNL1        0.1002
     12 N          64.4252   90.6221   14.6982 N.ar    1  UNL1       -0.2297
     13 C          65.1490   91.7908   14.0979 C.ar    1  UNL1        0.1245
     14 C          64.9697   92.1182   12.6451 C.ar    1  UNL1        0.0102
     15 C          64.0666   91.2770   11.7926 C.ar    1  UNL1        0.0001
     16 C          65.8075   93.3230   12.3347 C.3     1  UNL1        0.0395
     17 C          66.5630   94.5057   11.8048 C.3     1  UNL1        0.0058
     18 C          65.9768   94.2706   10.4442 C.3     1  UNL1        0.0008
     19 C          65.2213   93.0879   10.9740 C.3     1  UNL1        0.0058
     20 C          66.5047   93.7402   13.5955 C.3     1  UNL1        0.0922
     21 N          66.0977   92.7933   14.6853 N.pl3   1  UNL1       -0.3181
     22 H          66.4001   92.8243   15.6217 H       1  UNL1        0.1482
     23 C          63.2038   83.2878   10.4199 C.3     1  UNL1        0.1152
     24 N          62.7671   84.6563   10.8519 N.am    1  UNL1       -0.2725
     25 C          62.6871   84.9920   12.3116 C.3     1  UNL1        0.1152
     26 C          62.4103   85.6889    9.8241 C.2     1  UNL1        0.2503
     27 O          62.4903   85.3530    8.3643 O.2     1  UNL1       -0.2699
@<TRIPOS>BOND
     1    23    24    1
     2    24    25    1
     3    24    26   am
     4    26    27    2
     5    26     1    1
     6     1     2   ar
     7     2     3   ar
     8     3    10    1
     9    10    11   ar
    10    11    12   ar
    11    12    13   ar
    12    13    14   ar
    13    14    15   ar
    14    14    16    1
    15    16    17    1
    16    17    18    1
    17    18    19    1
    18    16    20    1
    19    20    21    1
    20     3     4   ar
    21     4     5   ar
    22     5     6   ar
    23     6     7    1
    24     6     1   ar
    25    15    10   ar
    26    19    16    1
    27    21    13    1
    28    21    22    1
    29     7     8    1
    30     7     9    1
@<TRIPOS>MOLECULE
*****
 27 30 0 0 0
SMALL
GASTEIGER

@<TRIPOS>ATOM
      1 C          63.5343   90.2504   14.3246 C.ar    1  UNL1        0.0664
      2 C          62.6266   89.6752   13.2782 C.ar    1  UNL1        0.0058
      3 C          62.8020   90.0605   11.8392 C.ar    1  UNL1        0.0017
      4 C          63.8852   91.0211   11.4467 C.ar    1  UNL1        0.0013
      5 C          64.7929   91.5963   12.4931 C.ar    1  UNL1        0.0142
      6 C          64.6175   91.2110   13.9321 C.ar    1  UNL1        0.0459
      7 N          65.5252   91.7861   14.9786 N.pl3   1  UNL1       -0.3569
      8 H          66.2361   92.4166   14.7211 H       1  UNL1        0.1424
      9 H          65.4100   91.5332   15.9231 H       1  UNL1        0.1424
     10 C          61.8943   89.4853   10.7926 C.ar    1  UNL1        0.0190
     11 C          60.6310   90.2027   10.4191 C.ar    1  UNL1        0.1002
     12 N          59.7233   89.6274    9.3726 N.ar    1  UNL1       -0.2297
     13 C          60.0789   88.3349    8.6996 C.ar    1  UNL1        0.1245
     14 C          61.3422   87.6175    9.0732 C.ar    1  UNL1        0.0102
     15 C          62.2498   88.1928   10.1197 C.ar    1  UNL1        0.0001
     16 C          61.4293   86.3703    8.2445 C.3     1  UNL1        0.0395
     17 C          61.7188   85.0838    7.5295 C.3     1  UNL1        0.0058
     18 C          62.9892   84.9342    8.3131 C.3     1  UNL1        0.0008
     19 C          62.6997   86.2207    9.0281 C.3     1  UNL1        0.0058
     20 C          60.2200   86.3168    7.3588 C.3     1  UNL1        0.0922
     21 N          59.3853   87.5310    7.6401 N.pl3   1  UNL1       -0.3181
     22 H          58.5321   87.7600    7.2055 H       1  UNL1        0.1482
     23 C          63.2828   88.0398   17.6110 C.3     1  UNL1        0.1152
     24 N          63.4582   88.4251   16.1719 N.am    1  UNL1       -0.2725
     25 C          63.7331   87.3705   15.1413 C.3     1  UNL1        0.1152
     26 C          63.3589   89.8650   15.7636 C.2     1  UNL1        0.2503
     27 O          63.0840   90.9196   16.7944 O.2     1  UNL1       -0.2699
@<TRIPOS>BOND
     1    23    24    1
     2    24    25    1
     3    24    26   am
     4    26    27    2
     5    26     1    1
     6     1     2   ar
     7     2     3   ar
     8     3    10    1
     9    10    11   ar
    10    11    12   ar
    11    12    13   ar
    12    13    14   ar
    13    14    15   ar
    14    14    16    1
    15    16    17    1
    16    17    18    1
    17    18    19    1
    18    16    20    1
    19    20    21    1
    20     3     4   ar
    21     4     5   ar
    22     5     6   ar
    23     6     7    1
    24     6     1   ar
    25    15    10   ar
    26    19    16    1
    27    21    13    1
    28    21    22    1
    29     7     8    1
    30     7     9    1
@<TRIPOS>MOLECULE
*****
 27 30 0 0 0
SMALL
GASTEIGER

@<TRIPOS>ATOM
      1 C          62.9091   82.4914   12.7994 C.ar    1  UNL1        0.0664
      2 C          62.6566   83.7512   12.0254 C.ar    1  UNL1        0.0058
      3 C          62.8955   85.0860   12.6666 C.ar    1  UNL1        0.0017
      4 C          63.3869   85.1610   14.0819 C.ar    1  UNL1        0.0013
      5 C          63.6394   83.9013   14.8559 C.ar    1  UNL1        0.0142
      6 C          63.4005   82.5665   14.2147 C.ar    1  UNL1        0.0459
      7 N          63.6530   81.3066   14.9887 N.pl3   1  UNL1       -0.3569
      8 H          63.9755   81.3559   15.9176 H       1  UNL1        0.1424
      9 H          63.4962   80.4306   14.5678 H       1  UNL1        0.1424
     10 C          62.6431   86.3459   11.8926 C.ar    1  UNL1        0.0190
     11 C          61.8589   86.2967   10.6148 C.ar    1  UNL1        0.1002
     12 N          61.6064   87.5565    9.8408 N.ar    1  UNL1       -0.2297
     13 C          62.1381   88.8655   10.3446 C.ar    1  UNL1        0.1245
     14 C          62.9223   88.9148   11.6223 C.ar    1  UNL1        0.0102
     15 C          63.1748   87.6549   12.3963 C.ar    1  UNL1        0.0001
     16 C          63.3179   90.3404   11.8687 C.3     1  UNL1        0.0395
     17 C          63.8176   91.6843   12.3098 C.3     1  UNL1        0.0058
     18 C          64.4432   91.0548   13.5191 C.3     1  UNL1        0.0008
     19 C          63.9435   89.7109   13.0781 C.3     1  UNL1        0.0058
     20 C          62.7783   91.1724   10.7433 C.3     1  UNL1        0.0922
     21 N          62.0491   90.2609    9.8013 N.pl3   1  UNL1       -0.3181
     22 H          61.5923   90.5310    8.9721 H       1  UNL1        0.1482
     23 C          62.9381   79.5541   10.1309 C.3     1  UNL1        0.1152
     24 N          63.1771   80.8890   10.7721 N.am    1  UNL1       -0.2725
     25 C          63.9229   81.9561   10.0271 C.3     1  UNL1        0.1152
     26 C          62.6702   81.1566   12.1582 C.2     1  UNL1        0.2503
     27 O          61.9244   80.0894   12.9032 O.2     1  UNL1       -0.2699
@<TRIPOS>BOND
     1    23    24    1
     2    24    25    1
     3    24    26   am
     4    26    27    2
     5    26     1    1
     6     1     2   ar
     7     2     3   ar
     8     3    10    1
     9    10    11   ar
    10    11    12   ar
    11    12    13   ar
    12    13    14   ar
    13    14    15   ar
    14    14    16    1
    15    16    17    1
    16    17    18    1
    17    18    19    1
    18    16    20    1
    19    20    21    1
    20     3     4   ar
    21     4     5   ar
    22     5     6   ar
    23     6     7    1
    24     6     1   ar
    25    15    10   ar
    26    19    16    1
    27    21    13    1
    28    21    22    1
    29     7     8    1
    30     7     9    1
@<TRIPOS>MOLECULE
*****
 27 30 0 0 0
SMALL
GASTEIGER

@<TRIPOS>ATOM
      1 C          63.5249   83.7551   12.9940 C.ar    1  UNL1        0.0664
      2 C          62.7553   84.7271   12.1498 C.ar    1  UNL1        0.0058
      3 C          62.8048   84.6245   10.6541 C.ar    1  UNL1        0.0017
      4 C          63.6239   83.5499   10.0027 C.ar    1  UNL1        0.0013
      5 C          64.3935   82.5779   10.8470 C.ar    1  UNL1        0.0142
      6 C          64.3440   82.6805   12.3426 C.ar    1  UNL1        0.0459
      7 N          65.1136   81.7084   13.1869 N.pl3   1  UNL1       -0.3569
      8 H          65.6512   81.0031   12.7595 H       1  UNL1        0.1424
      9 H          65.0811   81.7758   14.1686 H       1  UNL1        0.1424
     10 C          62.0352   85.5966    9.8097 C.ar    1  UNL1        0.0190
     11 C          61.6991   85.2536    8.3887 C.ar    1  UNL1        0.1002
     12 N          60.9295   86.2256    7.5444 N.ar    1  UNL1       -0.2297
     13 C          60.4960   87.5407    8.1212 C.ar    1  UNL1        0.1245
     14 C          60.8321   87.8838    9.5422 C.ar    1  UNL1        0.0102
     15 C          61.6017   86.9117   10.3864 C.ar    1  UNL1        0.0001
     16 C          60.2753   89.2456    9.8344 C.3     1  UNL1        0.0395
     17 C          59.8090   90.5779   10.3419 C.3     1  UNL1        0.0058
     18 C          60.4238   90.2840   11.6782 C.3     1  UNL1        0.0008
     19 C          60.8902   88.9517   11.1707 C.3     1  UNL1        0.0058
     20 C          59.5952   89.7442    8.5940 C.3     1  UNL1        0.0922
     21 N          59.7315   88.6905    7.5351 N.pl3   1  UNL1       -0.3181
     22 H          59.3809   88.7442    6.6168 H       1  UNL1        0.1482
     23 C          63.7736   85.2538   16.6603 C.3     1  UNL1        0.1152
     24 N          63.8232   85.1513   15.1646 N.am    1  UNL1       -0.2725
     25 C          64.2205   86.3423   14.3440 C.3     1  UNL1        0.1152
     26 C          63.4754   83.8576   14.4897 C.2     1  UNL1        0.2503
     27 O          63.0780   82.6665   15.3104 O.2     1  UNL1       -0.2699
@<TRIPOS>BOND
     1    23    24    1
     2    24    25    1
     3    24    26   am
     4    26    27    2
     5    26     1    1
     6     1     2   ar
     7     2     3   ar
     8     3    10    1
     9    10    11   ar
    10    11    12   ar
    11    12    13   ar
    12    13    14   ar
    13    14    15   ar
    14    14    16    1
    15    16    17    1
    16    17    18    1
    17    18    19    1
    18    16    20    1
    19    20    21    1
    20     3     4   ar
    21     4     5   ar
    22     5     6   ar
    23     6     7    1
    24     6     1   ar
    25    15    10   ar
    26    19    16    1
    27    21    13    1
    28    21    22    1
    29     7     8    1
    30     7     9    1
