@<TRIPOS>MOLECULE
*****
 26 29 0 0 0
SMALL
GASTEIGER

@<TRIPOS>ATOM
      1 C          62.8824   90.0202   12.1985 C.3     1  UNL1        0.2068
      2 C          63.2856   85.3017   12.6553 C.3     1  UNL1        0.0222
      3 C          62.5018   86.0641   11.6285 C.3     1  UNL1        0.0842
      4 C          61.6779   85.4673   10.5263 C.3     1  UNL1        0.0478
      5 C          61.0711   86.5916    9.7402 C.ar    1  UNL1       -0.0068
      6 C          60.1678   86.6060    8.5428 C.ar    1  UNL1       -0.0030
      7 C          59.7134   87.9121    7.9619 C.ar    1  UNL1       -0.0002
      8 C          60.1623   89.2038    8.5784 C.ar    1  UNL1        0.0013
      9 C          61.0656   89.1894    9.7758 C.ar    1  UNL1        0.0146
     10 C          61.5200   87.8833   10.3567 C.ar    1  UNL1        0.0498
     11 N          62.4042   87.5573   11.5237 N.am    1  UNL1       -0.2598
     12 C          63.0733   88.5502   12.4273 C.2     1  UNL1        0.2418
     13 O          63.9334   88.0730   13.5599 O.2     1  UNL1       -0.2739
     14 C          63.9494   90.9889   12.6145 C.2     1  UNL1        0.3580
     15 N          64.6745   91.7964   11.5791 N.2     1  UNL1       -0.0039
     16 C          65.7415   92.7650   11.9951 C.2     1  UNL1        0.3159
     17 C          66.0835   92.9262   13.4467 C.3     1  UNL1        0.2333
     18 C          65.3584   92.1187   14.4822 C.2     1  UNL1        0.3644
     19 O          65.7004   92.2799   15.9337 O.2     1  UNL1       -0.2422
     20 N          64.2914   91.1501   14.0661 N.am    1  UNL1        0.0289
     21 N          66.4666   93.5725   10.9596 N.pl3   1  UNL1       -0.1888
     22 C          67.3934   92.8953    9.9941 C.3     1  UNL1        0.2343
     23 C          68.1185   93.7028    8.9586 C.3     1  UNL1        0.1929
     24 O          67.9167   95.1876    8.8886 O.3     1  UNL1       -0.3449
     25 C          66.9899   95.8647    9.8542 C.3     1  UNL1        0.1929
     26 C          66.2648   95.0572   10.8897 C.3     1  UNL1        0.2343
@<TRIPOS>BOND
     1     3     2    1
     2     3     4    1
     3     4     5    1
     4     5     6   ar
     5     6     7   ar
     6     7     8   ar
     7     8     9   ar
     8     9    10   ar
     9    10    11    1
    10    11    12   am
    11    12    13    2
    12    12     1    1
    13     1    14    1
    14    14    15    1
    15    15    16    2
    16    16    21    1
    17    21    22    1
    18    22    23    1
    19    23    24    1
    20    24    25    1
    21    25    26    1
    22    16    17    1
    23    17    18    1
    24    18    19    2
    25    18    20    1
    26    11     3    1
    27    20    14    2
    28    10     5   ar
    29    26    21    1
@<TRIPOS>MOLECULE
*****
 26 29 0 0 0
SMALL
GASTEIGER

@<TRIPOS>ATOM
      1 C          64.4106   88.7818   14.5268 C.3     1  UNL1        0.2068
      2 C          62.9912   90.6224   10.3755 C.3     1  UNL1        0.0222
      3 C          63.9223   91.2302   11.3824 C.3     1  UNL1        0.0842
      4 C          64.5969   92.5649   11.2665 C.3     1  UNL1        0.0478
      5 C          65.4337   92.7695   12.4945 C.ar    1  UNL1       -0.0068
      6 C          66.3187   93.9000   12.9290 C.ar    1  UNL1       -0.0030
      7 C          67.0463   93.8222   14.2384 C.ar    1  UNL1       -0.0002
      8 C          66.8888   92.6139   15.1133 C.ar    1  UNL1        0.0013
      9 C          66.0038   91.4835   14.6787 C.ar    1  UNL1        0.0146
     10 C          65.2763   91.5613   13.3693 C.ar    1  UNL1        0.0498
     11 N          64.3421   90.6100   12.6820 N.am    1  UNL1       -0.2598
     12 C          63.9047   89.2731   13.2030 C.2     1  UNL1        0.2418
     13 O          62.9612   88.4273   12.3999 O.2     1  UNL1       -0.2739
     14 C          63.8619   87.5166   15.1169 C.2     1  UNL1        0.3580
     15 N          63.8659   86.2505   14.3125 N.2     1  UNL1       -0.0039
     16 C          63.3172   84.9853   14.9026 C.2     1  UNL1        0.3159
     17 C          62.7644   84.9862   16.2970 C.3     1  UNL1        0.2333
     18 C          62.7603   86.2523   17.1014 C.2     1  UNL1        0.3644
     19 O          62.2075   86.2534   18.4957 O.2     1  UNL1       -0.2422
     20 N          63.3091   87.5175   16.5113 N.am    1  UNL1        0.0289
     21 N          63.3212   83.7192   14.0983 N.pl3   1  UNL1       -0.1888
     22 C          64.2624   83.5695   12.9400 C.3     1  UNL1        0.2343
     23 C          64.2665   82.3034   12.1357 C.3     1  UNL1        0.1929
     24 O          63.3293   81.1869   12.4896 O.3     1  UNL1       -0.3449
     25 C          62.3881   81.3367   13.6479 C.3     1  UNL1        0.1929
     26 C          62.3840   82.6028   14.4522 C.3     1  UNL1        0.2343
@<TRIPOS>BOND
     1     3     2    1
     2     3     4    1
     3     4     5    1
     4     5     6   ar
     5     6     7   ar
     6     7     8   ar
     7     8     9   ar
     8     9    10   ar
     9    10    11    1
    10    11    12   am
    11    12    13    2
    12    12     1    1
    13     1    14    1
    14    14    15    1
    15    15    16    2
    16    16    21    1
    17    21    22    1
    18    22    23    1
    19    23    24    1
    20    24    25    1
    21    25    26    1
    22    16    17    1
    23    17    18    1
    24    18    19    2
    25    18    20    1
    26    11     3    1
    27    20    14    2
    28    10     5   ar
    29    26    21    1
@<TRIPOS>MOLECULE
*****
 26 29 0 0 0
SMALL
GASTEIGER

@<TRIPOS>ATOM
      1 C          63.4862   89.7959   13.3306 C.3     1  UNL1        0.2068
      2 C          60.9973   89.2189    9.3171 C.3     1  UNL1        0.0222
      3 C          61.5913   88.1563   10.1935 C.3     1  UNL1        0.0842
      4 C          61.5101   86.6763    9.9632 C.3     1  UNL1        0.0478
      5 C          62.2395   85.9925   11.0814 C.ar    1  UNL1       -0.0068
      6 C          62.4880   84.5436   11.3796 C.ar    1  UNL1       -0.0030
      7 C          63.2685   84.1521   12.5992 C.ar    1  UNL1       -0.0002
      8 C          63.8005   85.2095   13.5206 C.ar    1  UNL1        0.0013
      9 C          63.5520   86.6583   13.2224 C.ar    1  UNL1        0.0146
     10 C          62.7715   87.0498   12.0028 C.ar    1  UNL1        0.0498
     11 N          62.3709   88.3871   11.4540 N.am    1  UNL1       -0.2598
     12 C          62.6933   89.7211   12.0595 C.2     1  UNL1        0.2418
     13 O          62.2228   90.9804   11.3939 O.2     1  UNL1       -0.2739
     14 C          64.4504   90.9242   13.5479 C.2     1  UNL1        0.3580
     15 N          64.9986   91.6790   12.3732 N.2     1  UNL1       -0.0039
     16 C          65.9629   92.8073   12.5905 C.2     1  UNL1        0.3159
     17 C          66.3789   93.1808   13.9824 C.3     1  UNL1        0.2333
     18 C          65.8306   92.4261   15.1570 C.2     1  UNL1        0.3644
     19 O          66.2465   92.7995   16.5490 O.2     1  UNL1       -0.2422
     20 N          64.8664   91.2978   14.9398 N.am    1  UNL1        0.0289
     21 N          66.5111   93.5620   11.4159 N.pl3   1  UNL1       -0.1888
     22 C          66.3105   95.0453   11.3175 C.3     1  UNL1        0.2343
     23 C          66.8588   95.8000   10.1429 C.3     1  UNL1        0.1929
     24 O          67.6077   95.0715    9.0666 O.3     1  UNL1       -0.3449
     25 C          67.8083   93.5883    9.1650 C.3     1  UNL1        0.1929
     26 C          67.2601   92.8335   10.3396 C.3     1  UNL1        0.2343
@<TRIPOS>BOND
     1     3     2    1
     2     3     4    1
     3     4     5    1
     4     5     6   ar
     5     6     7   ar
     6     7     8   ar
     7     8     9   ar
     8     9    10   ar
     9    10    11    1
    10    11    12   am
    11    12    13    2
    12    12     1    1
    13     1    14    1
    14    14    15    1
    15    15    16    2
    16    16    21    1
    17    21    22    1
    18    22    23    1
    19    23    24    1
    20    24    25    1
    21    25    26    1
    22    16    17    1
    23    17    18    1
    24    18    19    2
    25    18    20    1
    26    11     3    1
    27    20    14    2
    28    10     5   ar
    29    26    21    1
@<TRIPOS>MOLECULE
*****
 26 29 0 0 0
SMALL
GASTEIGER

@<TRIPOS>ATOM
      1 C          62.4719   90.2143   11.9543 C.3     1  UNL1        0.2068
      2 C          65.9919   92.9120   10.2317 C.3     1  UNL1        0.0222
      3 C          65.6868   92.6023   11.6673 C.3     1  UNL1        0.0842
      4 C          66.4529   93.0971   12.8581 C.3     1  UNL1        0.0478
      5 C          65.8015   92.5439   14.0909 C.ar    1  UNL1       -0.0068
      6 C          66.1217   92.6940   15.5486 C.ar    1  UNL1       -0.0030
      7 C          65.2730   92.0075   16.5774 C.ar    1  UNL1       -0.0002
      8 C          64.1043   91.1708   16.1484 C.ar    1  UNL1        0.0013
      9 C          63.7842   91.0207   14.6907 C.ar    1  UNL1        0.0146
     10 C          64.6328   91.7073   13.6620 C.ar    1  UNL1        0.0498
     11 N          64.5619   91.7433   12.1641 N.am    1  UNL1       -0.2598
     12 C          63.5446   91.0433   11.3125 C.2     1  UNL1        0.2418
     13 O          63.6001   91.1723    9.8190 O.2     1  UNL1       -0.2739
     14 C          62.1563   88.8498   11.4171 C.2     1  UNL1        0.3580
     15 N          62.7276   87.6319   12.0807 N.2     1  UNL1       -0.0039
     16 C          62.4120   86.2674   11.5436 C.2     1  UNL1        0.3159
     17 C          61.5250   86.1208   10.3429 C.3     1  UNL1        0.2333
     18 C          60.9537   87.3386    9.6793 C.2     1  UNL1        0.3644
     19 O          60.0667   87.1921    8.4786 O.2     1  UNL1       -0.2422
     20 N          61.2693   88.7031   10.2164 N.am    1  UNL1        0.0289
     21 N          62.9833   85.0496   12.2072 N.pl3   1  UNL1       -0.1888
     22 C          63.6974   85.1762   13.5202 C.3     1  UNL1        0.2343
     23 C          64.2687   83.9583   14.1838 C.3     1  UNL1        0.1929
     24 O          64.1260   82.6138   13.5344 O.3     1  UNL1       -0.3449
     25 C          63.4119   82.4871   12.2214 C.3     1  UNL1        0.1929
     26 C          62.8406   83.7050   11.5578 C.3     1  UNL1        0.2343
@<TRIPOS>BOND
     1     3     2    1
     2     3     4    1
     3     4     5    1
     4     5     6   ar
     5     6     7   ar
     6     7     8   ar
     7     8     9   ar
     8     9    10   ar
     9    10    11    1
    10    11    12   am
    11    12    13    2
    12    12     1    1
    13     1    14    1
    14    14    15    1
    15    15    16    2
    16    16    21    1
    17    21    22    1
    18    22    23    1
    19    23    24    1
    20    24    25    1
    21    25    26    1
    22    16    17    1
    23    17    18    1
    24    18    19    2
    25    18    20    1
    26    11     3    1
    27    20    14    2
    28    10     5   ar
    29    26    21    1
@<TRIPOS>MOLECULE
*****
 26 29 0 0 0
SMALL
GASTEIGER

@<TRIPOS>ATOM
      1 C          63.5023   87.7960   12.3653 C.3     1  UNL1        0.2068
      2 C          59.6913   90.4589   11.3550 C.3     1  UNL1        0.0222
      3 C          60.2292   89.2902   10.5837 C.3     1  UNL1        0.0842
      4 C          59.6523   88.7282    9.3183 C.3     1  UNL1        0.0478
      5 C          60.5050   87.5690    8.8949 C.ar    1  UNL1       -0.0068
      6 C          60.4189   86.6341    7.7251 C.ar    1  UNL1       -0.0030
      7 C          61.4367   85.5448    7.5591 C.ar    1  UNL1       -0.0002
      8 C          62.5406   85.3904    8.5629 C.ar    1  UNL1        0.0013
      9 C          62.6267   86.3253    9.7327 C.ar    1  UNL1        0.0146
     10 C          61.6089   87.4146    9.8987 C.ar    1  UNL1        0.0498
     11 N          61.4384   88.4784   10.9424 N.am    1  UNL1       -0.2598
     12 C          62.3221   88.6927   12.1354 C.2     1  UNL1        0.2418
     13 O          62.0255   89.8038   13.0986 O.2     1  UNL1       -0.2739
     14 C          63.4141   86.6816   13.3655 C.2     1  UNL1        0.3580
     15 N          63.1747   85.2752   12.9022 N.2     1  UNL1       -0.0039
     16 C          63.0865   84.1608   13.9024 C.2     1  UNL1        0.3159
     17 C          63.2377   84.4529   15.3659 C.3     1  UNL1        0.2333
     18 C          63.4772   85.8593   15.8292 C.2     1  UNL1        0.3644
     19 O          63.6284   86.1514   17.2926 O.2     1  UNL1       -0.2422
     20 N          63.5654   86.9737   14.8290 N.am    1  UNL1        0.0289
     21 N          62.8470   82.7544   13.4391 N.pl3   1  UNL1       -0.1888
     22 C          62.0708   81.8029   14.3004 C.3     1  UNL1        0.2343
     23 C          61.8313   80.3965   13.8371 C.3     1  UNL1        0.1929
     24 O          62.3682   79.9416   12.5124 O.3     1  UNL1       -0.3449
     25 C          63.1444   80.8931   11.6511 C.3     1  UNL1        0.1929
     26 C          63.3839   82.2995   12.1144 C.3     1  UNL1        0.2343
@<TRIPOS>BOND
     1     3     2    1
     2     3     4    1
     3     4     5    1
     4     5     6   ar
     5     6     7   ar
     6     7     8   ar
     7     8     9   ar
     8     9    10   ar
     9    10    11    1
    10    11    12   am
    11    12    13    2
    12    12     1    1
    13     1    14    1
    14    14    15    1
    15    15    16    2
    16    16    21    1
    17    21    22    1
    18    22    23    1
    19    23    24    1
    20    24    25    1
    21    25    26    1
    22    16    17    1
    23    17    18    1
    24    18    19    2
    25    18    20    1
    26    11     3    1
    27    20    14    2
    28    10     5   ar
    29    26    21    1
