@<TRIPOS>MOLECULE
*****
 22 24 0 0 0
SMALL
GASTEIGER

@<TRIPOS>ATOM
      1 C          65.3783   92.7264   11.5116 C.ar    1  UNL1        0.2035
      2 N          64.3741   91.7956   10.8992 N.ar    1  UNL1       -0.2147
      3 C          63.6727   90.7816   11.7534 C.ar    1  UNL1        0.0911
      4 C          63.9755   90.6984   13.2203 C.ar    1  UNL1        0.0801
      5 C          64.9797   91.6293   13.8327 C.ar    1  UNL1        0.2645
      6 O          65.2825   91.5461   15.2994 O.2     1  UNL1       -0.2668
      7 N          65.6811   92.6433   12.9783 N.ar    1  UNL1       -0.2667
      8 C          66.6854   93.5741   13.5908 C.3     1  UNL1        0.1363
      9 C          67.9017   91.9843   10.0687 C.3     1  UNL1        0.0242
     10 C          67.3414   93.3693    9.9358 C.3     1  UNL1        0.1052
     11 C          68.0428   94.3833    9.0815 C.3     1  UNL1        0.1619
     12 O          67.4825   95.7684    8.9486 O.3     1  UNL1       -0.3502
     13 C          66.2208   96.1395    9.6700 C.3     1  UNL1        0.1637
     14 C          65.5195   95.1255   10.5243 C.3     1  UNL1        0.1256
     15 N          66.0798   93.7404   10.6572 N.pl3   1  UNL1       -0.2760
     16 C          62.6685   89.8508   11.1410 C.ar    1  UNL1        0.0485
     17 C          61.6883   90.3655   10.1290 C.ar    1  UNL1        0.0244
     18 C          60.6841   89.4347    9.5165 C.ar    1  UNL1        0.0991
     19 N          60.6600   87.9891    9.9161 N.ar    1  UNL1       -0.2400
     20 C          61.6402   87.4743   10.9282 C.ar    1  UNL1        0.1285
     21 C          62.6445   88.4051   11.5406 C.ar    1  UNL1        0.1606
     22 F          63.6246   87.8904   12.5527 F       1  UNL1       -0.2025
@<TRIPOS>BOND
     1    10     9    1
     2    10    11    1
     3    11    12    1
     4    12    13    1
     5    13    14    1
     6    14    15    1
     7    15     1    1
     8     1     2   ar
     9     2     3   ar
    10     3    16    1
    11    16    17   ar
    12    17    18   ar
    13    18    19   ar
    14    19    20   ar
    15    20    21   ar
    16    21    22    1
    17     3     4   ar
    18     4     5   ar
    19     5     6    2
    20     5     7   ar
    21     7     8    1
    22    15    10    1
    23     7     1   ar
    24    21    16   ar
@<TRIPOS>MOLECULE
*****
 22 24 0 0 0
SMALL
GASTEIGER

@<TRIPOS>ATOM
      1 C          62.6531   84.9413   12.3813 C.ar    1  UNL1        0.2035
      2 N          61.8201   85.3832   11.2147 N.ar    1  UNL1       -0.2147
      3 C          61.7504   86.8366   10.8506 C.ar    1  UNL1        0.0911
      4 C          62.5138   87.8483   11.6531 C.ar    1  UNL1        0.0801
      5 C          63.3468   87.4065   12.8197 C.ar    1  UNL1        0.2645
      6 O          64.1101   88.4180   13.6221 O.2     1  UNL1       -0.2668
      7 N          63.4164   85.9529   13.1838 N.ar    1  UNL1       -0.2667
      8 C          64.2494   85.5111   14.3504 C.3     1  UNL1        0.1363
      9 C          64.2517   83.0466   10.6918 C.3     1  UNL1        0.0242
     10 C          63.5220   82.5405   11.9007 C.3     1  UNL1        0.1052
     11 C          63.5916   81.0871   12.2648 C.3     1  UNL1        0.1619
     12 O          62.8619   80.5810   13.4737 O.3     1  UNL1       -0.3502
     13 C          62.0626   81.5283   14.3185 C.3     1  UNL1        0.1637
     14 C          61.9930   82.9817   13.9543 C.3     1  UNL1        0.1256
     15 N          62.7227   83.4878   12.7454 N.pl3   1  UNL1       -0.2760
     16 C          60.9175   87.2785    9.6840 C.ar    1  UNL1        0.0485
     17 C          60.3140   86.2587    8.7643 C.ar    1  UNL1        0.0244
     18 C          59.4811   86.7006    7.5977 C.ar    1  UNL1        0.0991
     19 N          59.2515   88.1622    7.3509 N.ar    1  UNL1       -0.2400
     20 C          59.8549   89.1820    8.2706 C.ar    1  UNL1        0.1285
     21 C          60.6879   88.7402    9.4372 C.ar    1  UNL1        0.1606
     22 F          61.2913   89.7599   10.3569 F       1  UNL1       -0.2025
@<TRIPOS>BOND
     1    10     9    1
     2    10    11    1
     3    11    12    1
     4    12    13    1
     5    13    14    1
     6    14    15    1
     7    15     1    1
     8     1     2   ar
     9     2     3   ar
    10     3    16    1
    11    16    17   ar
    12    17    18   ar
    13    18    19   ar
    14    19    20   ar
    15    20    21   ar
    16    21    22    1
    17     3     4   ar
    18     4     5   ar
    19     5     6    2
    20     5     7   ar
    21     7     8    1
    22    15    10    1
    23     7     1   ar
    24    21    16   ar
@<TRIPOS>MOLECULE
*****
 22 24 0 0 0
SMALL
GASTEIGER

@<TRIPOS>ATOM
      1 C          62.8382   88.6000   12.0631 C.ar    1  UNL1        0.2035
      2 N          63.2745   87.1997   12.3773 N.ar    1  UNL1       -0.2147
      3 C          62.4891   86.0340   11.8536 C.ar    1  UNL1        0.0911
      4 C          61.2672   86.2687   11.0156 C.ar    1  UNL1        0.0801
      5 C          60.8309   87.6691   10.7014 C.ar    1  UNL1        0.2645
      6 O          59.6092   87.9038    9.8635 O.2     1  UNL1       -0.2668
      7 N          61.6165   88.8347   11.2252 N.ar    1  UNL1       -0.2667
      8 C          61.1802   90.2350   10.9110 C.3     1  UNL1        0.1363
      9 C          64.0250   88.4934   14.8163 C.3     1  UNL1        0.0242
     10 C          64.2171   89.7123   13.9635 C.3     1  UNL1        0.1052
     11 C          65.0026   90.8779   14.4872 C.3     1  UNL1        0.1619
     12 O          65.1947   92.0968   13.6343 O.3     1  UNL1       -0.3502
     13 C          64.6014   92.1501   12.2578 C.3     1  UNL1        0.1637
     14 C          63.8159   90.9845   11.7340 C.3     1  UNL1        0.1256
     15 N          63.6238   89.7656   12.5869 N.pl3   1  UNL1       -0.2760
     16 C          62.9254   84.6337   12.1677 C.ar    1  UNL1        0.0485
     17 C          62.7835   84.0989   13.5619 C.ar    1  UNL1        0.0244
     18 C          63.2198   82.6986   13.8761 C.ar    1  UNL1        0.0991
     19 N          63.7980   81.8330   12.7961 N.ar    1  UNL1       -0.2400
     20 C          63.9398   82.3678   11.4018 C.ar    1  UNL1        0.1285
     21 C          63.5035   83.7681   11.0876 C.ar    1  UNL1        0.1606
     22 F          63.6454   84.3029    9.6934 F       1  UNL1       -0.2025
@<TRIPOS>BOND
     1    10     9    1
     2    10    11    1
     3    11    12    1
     4    12    13    1
     5    13    14    1
     6    14    15    1
     7    15     1    1
     8     1     2   ar
     9     2     3   ar
    10     3    16    1
    11    16    17   ar
    12    17    18   ar
    13    18    19   ar
    14    19    20   ar
    15    20    21   ar
    16    21    22    1
    17     3     4   ar
    18     4     5   ar
    19     5     6    2
    20     5     7   ar
    21     7     8    1
    22    15    10    1
    23     7     1   ar
    24    21    16   ar
@<TRIPOS>MOLECULE
*****
 22 24 0 0 0
SMALL
GASTEIGER

@<TRIPOS>ATOM
      1 C          62.6875   84.8763   11.6350 C.ar    1  UNL1        0.2035
      2 N          61.9610   86.1663   11.8761 N.ar    1  UNL1       -0.2147
      3 C          61.6394   87.0724   10.7248 C.ar    1  UNL1        0.0911
      4 C          62.0443   86.6886    9.3324 C.ar    1  UNL1        0.0801
      5 C          62.7709   85.3986    9.0913 C.ar    1  UNL1        0.2645
      6 O          63.1758   85.0148    7.6990 O.2     1  UNL1       -0.2668
      7 N          63.0924   84.4924   10.2427 N.ar    1  UNL1       -0.2667
      8 C          63.8190   83.2025   10.0016 C.3     1  UNL1        0.1363
      9 C          64.2265   85.9267   13.9862 C.3     1  UNL1        0.0242
     10 C          63.7785   84.4953   13.9619 C.3     1  UNL1        0.1052
     11 C          64.1001   83.5891   15.1132 C.3     1  UNL1        0.1619
     12 O          63.6521   82.1578   15.0889 O.3     1  UNL1       -0.3502
     13 C          62.8827   81.6326   13.9133 C.3     1  UNL1        0.1637
     14 C          62.5611   82.5388   12.7620 C.3     1  UNL1        0.1256
     15 N          63.0091   83.9701   12.7863 N.pl3   1  UNL1       -0.2760
     16 C          60.9129   88.3624   10.9659 C.ar    1  UNL1        0.0485
     17 C          59.5571   88.3510   11.6076 C.ar    1  UNL1        0.0244
     18 C          58.8306   89.6410   11.8487 C.ar    1  UNL1        0.0991
     19 N          59.4598   90.9423   11.4481 N.ar    1  UNL1       -0.2400
     20 C          60.8156   90.9538   10.8063 C.ar    1  UNL1        0.1285
     21 C          61.5422   89.6638   10.5653 C.ar    1  UNL1        0.1606
     22 F          62.8979   89.6751    9.9236 F       1  UNL1       -0.2025
@<TRIPOS>BOND
     1    10     9    1
     2    10    11    1
     3    11    12    1
     4    12    13    1
     5    13    14    1
     6    14    15    1
     7    15     1    1
     8     1     2   ar
     9     2     3   ar
    10     3    16    1
    11    16    17   ar
    12    17    18   ar
    13    18    19   ar
    14    19    20   ar
    15    20    21   ar
    16    21    22    1
    17     3     4   ar
    18     4     5   ar
    19     5     6    2
    20     5     7   ar
    21     7     8    1
    22    15    10    1
    23     7     1   ar
    24    21    16   ar
@<TRIPOS>MOLECULE
*****
 22 24 0 0 0
SMALL
GASTEIGER

@<TRIPOS>ATOM
      1 C          62.4848   88.6745   12.0558 C.ar    1  UNL1        0.2035
      2 N          63.0411   87.2823   12.1031 N.ar    1  UNL1       -0.2147
      3 C          62.3265   86.1649   11.4026 C.ar    1  UNL1        0.0911
      4 C          61.0555   86.4397   10.6547 C.ar    1  UNL1        0.0801
      5 C          60.4993   87.8320   10.6074 C.ar    1  UNL1        0.2645
      6 O          59.2284   88.1068    9.8596 O.2     1  UNL1       -0.2668
      7 N          61.2139   88.9494   11.3079 N.ar    1  UNL1       -0.2667
      8 C          60.6577   90.3416   11.2606 C.3     1  UNL1        0.1363
      9 C          63.7425   90.8831   10.4619 C.3     1  UNL1        0.0242
     10 C          63.8283   90.8962   11.9594 C.3     1  UNL1        0.1052
     11 C          64.5429   92.0136   12.6599 C.3     1  UNL1        0.1619
     12 O          64.6287   92.0267   14.1574 O.3     1  UNL1       -0.3502
     13 C          63.9999   90.9224   14.9544 C.3     1  UNL1        0.1637
     14 C          63.2853   89.8051   14.2538 C.3     1  UNL1        0.1256
     15 N          63.1995   89.7920   12.7563 N.pl3   1  UNL1       -0.2760
     16 C          62.8828   84.7727   11.4500 C.ar    1  UNL1        0.0485
     17 C          63.4902   84.1655   10.2203 C.ar    1  UNL1        0.0244
     18 C          64.0465   82.7733   10.2676 C.ar    1  UNL1        0.0991
     19 N          63.9953   81.9882   11.5447 N.ar    1  UNL1       -0.2400
     20 C          63.3878   82.5954   12.7745 C.ar    1  UNL1        0.1285
     21 C          62.8315   83.9876   12.7272 C.ar    1  UNL1        0.1606
     22 F          62.2241   84.5948   13.9569 F       1  UNL1       -0.2025
@<TRIPOS>BOND
     1    10     9    1
     2    10    11    1
     3    11    12    1
     4    12    13    1
     5    13    14    1
     6    14    15    1
     7    15     1    1
     8     1     2   ar
     9     2     3   ar
    10     3    16    1
    11    16    17   ar
    12    17    18   ar
    13    18    19   ar
    14    19    20   ar
    15    20    21   ar
    16    21    22    1
    17     3     4   ar
    18     4     5   ar
    19     5     6    2
    20     5     7   ar
    21     7     8    1
    22    15    10    1
    23     7     1   ar
    24    21    16   ar
@<TRIPOS>MOLECULE
*****
 22 24 0 0 0
SMALL
GASTEIGER

@<TRIPOS>ATOM
      1 C          62.7366   86.8556   11.9304 C.ar    1  UNL1        0.2035
      2 N          63.0960   88.1922   12.5087 N.ar    1  UNL1       -0.2147
      3 C          63.8606   88.2710   13.7968 C.ar    1  UNL1        0.0911
      4 C          64.2659   87.0132   14.5066 C.ar    1  UNL1        0.0801
      5 C          63.9065   85.6767   13.9283 C.ar    1  UNL1        0.2645
      6 O          64.3118   84.4189   14.6381 O.2     1  UNL1       -0.2668
      7 N          63.1419   85.5979   12.6402 N.ar    1  UNL1       -0.2667
      8 C          62.7825   84.2613   12.0619 C.3     1  UNL1        0.1363
      9 C          60.1087   88.2767   11.6567 C.3     1  UNL1        0.0242
     10 C          60.6580   87.4874   10.5055 C.3     1  UNL1        0.1052
     11 C          59.8934   87.4086    9.2174 C.3     1  UNL1        0.1619
     12 O          60.4427   86.6193    8.0662 O.3     1  UNL1       -0.3502
     13 C          61.7566   85.9087    8.2031 C.3     1  UNL1        0.1637
     14 C          62.5212   85.9875    9.4911 C.3     1  UNL1        0.1256
     15 N          61.9719   86.7769   10.6423 N.pl3   1  UNL1       -0.2760
     16 C          64.2200   89.6076   14.3750 C.ar    1  UNL1        0.0485
     17 C          65.1214   90.5355   13.6158 C.ar    1  UNL1        0.0244
     18 C          65.4808   91.8720   14.1941 C.ar    1  UNL1        0.0991
     19 N          64.9388   92.2808   15.5316 N.ar    1  UNL1       -0.2400
     20 C          64.0373   91.3529   16.2910 C.ar    1  UNL1        0.1285
     21 C          63.6779   90.0163   15.7127 C.ar    1  UNL1        0.1606
     22 F          62.7765   89.0885   16.4720 F       1  UNL1       -0.2025
@<TRIPOS>BOND
     1    10     9    1
     2    10    11    1
     3    11    12    1
     4    12    13    1
     5    13    14    1
     6    14    15    1
     7    15     1    1
     8     1     2   ar
     9     2     3   ar
    10     3    16    1
    11    16    17   ar
    12    17    18   ar
    13    18    19   ar
    14    19    20   ar
    15    20    21   ar
    16    21    22    1
    17     3     4   ar
    18     4     5   ar
    19     5     6    2
    20     5     7   ar
    21     7     8    1
    22    15    10    1
    23     7     1   ar
    24    21    16   ar
@<TRIPOS>MOLECULE
*****
 22 24 0 0 0
SMALL
GASTEIGER

@<TRIPOS>ATOM
      1 C          63.6218   89.1725   13.0204 C.ar    1  UNL1        0.2035
      2 N          63.8192   87.7546   13.4684 N.ar    1  UNL1       -0.2147
      3 C          63.2056   86.6294   12.6890 C.ar    1  UNL1        0.0911
      4 C          62.3945   86.9221   11.4616 C.ar    1  UNL1        0.0801
      5 C          62.1970   88.3400   11.0136 C.ar    1  UNL1        0.2645
      6 O          61.3859   88.6327    9.7863 O.2     1  UNL1       -0.2668
      7 N          62.8107   89.4652   11.7931 N.ar    1  UNL1       -0.2667
      8 C          62.6133   90.8830   11.3451 C.3     1  UNL1        0.1363
      9 C          62.9489   89.5293   15.9221 C.3     1  UNL1        0.0242
     10 C          63.8990   90.4760   15.2506 C.3     1  UNL1        0.1052
     11 C          64.5127   91.6012   16.0300 C.3     1  UNL1        0.1619
     12 O          65.4629   92.5479   15.3585 O.3     1  UNL1       -0.3502
     13 C          65.7993   92.3695   13.9077 C.3     1  UNL1        0.1637
     14 C          65.1856   91.2444   13.1283 C.3     1  UNL1        0.1256
     15 N          64.2355   90.2976   13.7998 N.pl3   1  UNL1       -0.2760
     16 C          63.4031   85.2116   13.1370 C.ar    1  UNL1        0.0485
     17 C          63.1184   84.0805   12.1939 C.ar    1  UNL1        0.0244
     18 C          63.3158   82.6626   12.6419 C.ar    1  UNL1        0.0991
     19 N          63.7979   82.3759   14.0330 N.ar    1  UNL1       -0.2400
     20 C          64.0827   83.5070   14.9762 C.ar    1  UNL1        0.1285
     21 C          63.8852   84.9249   14.5282 C.ar    1  UNL1        0.1606
     22 F          64.1699   86.0559   15.4714 F       1  UNL1       -0.2025
@<TRIPOS>BOND
     1    10     9    1
     2    10    11    1
     3    11    12    1
     4    12    13    1
     5    13    14    1
     6    14    15    1
     7    15     1    1
     8     1     2   ar
     9     2     3   ar
    10     3    16    1
    11    16    17   ar
    12    17    18   ar
    13    18    19   ar
    14    19    20   ar
    15    20    21   ar
    16    21    22    1
    17     3     4   ar
    18     4     5   ar
    19     5     6    2
    20     5     7   ar
    21     7     8    1
    22    15    10    1
    23     7     1   ar
    24    21    16   ar
@<TRIPOS>MOLECULE
*****
 22 24 0 0 0
SMALL
GASTEIGER

@<TRIPOS>ATOM
      1 C          63.6191   85.7768   14.1596 C.ar    1  UNL1        0.2035
      2 N          64.0068   87.1363   13.6581 N.ar    1  UNL1       -0.2147
      3 C          63.9906   88.3119   14.5895 C.ar    1  UNL1        0.0911
      4 C          63.5868   88.1281   16.0225 C.ar    1  UNL1        0.0801
      5 C          63.1991   86.7686   16.5239 C.ar    1  UNL1        0.2645
      6 O          62.7953   86.5847   17.9567 O.2     1  UNL1       -0.2668
      7 N          63.2153   85.5929   15.5924 N.ar    1  UNL1       -0.2667
      8 C          62.8276   84.2334   16.0938 C.3     1  UNL1        0.1363
      9 C          61.9665   85.8236   11.6562 C.3     1  UNL1        0.0242
     10 C          62.8089   84.6245   11.9764 C.3     1  UNL1        0.1052
     11 C          62.8251   83.4489   11.0450 C.3     1  UNL1        0.1619
     12 O          63.6676   82.2499   11.3652 O.3     1  UNL1       -0.3502
     13 C          64.4939   82.2264   12.6169 C.3     1  UNL1        0.1637
     14 C          64.4777   83.4021   13.5483 C.3     1  UNL1        0.1256
     15 N          63.6352   84.6011   13.2281 N.pl3   1  UNL1       -0.2760
     16 C          64.3783   89.6715   14.0881 C.ar    1  UNL1        0.0485
     17 C          65.3782   90.4934   14.8461 C.ar    1  UNL1        0.0244
     18 C          65.7658   91.8529   14.3447 C.ar    1  UNL1        0.0991
     19 N          65.1536   92.3905   13.0853 N.ar    1  UNL1       -0.2400
     20 C          64.1537   91.5685   12.3272 C.ar    1  UNL1        0.1285
     21 C          63.7660   90.2090   12.8286 C.ar    1  UNL1        0.1606
     22 F          62.7662   89.3870   12.0706 F       1  UNL1       -0.2025
@<TRIPOS>BOND
     1    10     9    1
     2    10    11    1
     3    11    12    1
     4    12    13    1
     5    13    14    1
     6    14    15    1
     7    15     1    1
     8     1     2   ar
     9     2     3   ar
    10     3    16    1
    11    16    17   ar
    12    17    18   ar
    13    18    19   ar
    14    19    20   ar
    15    20    21   ar
    16    21    22    1
    17     3     4   ar
    18     4     5   ar
    19     5     6    2
    20     5     7   ar
    21     7     8    1
    22    15    10    1
    23     7     1   ar
    24    21    16   ar
@<TRIPOS>MOLECULE
*****
 22 24 0 0 0
SMALL
GASTEIGER

@<TRIPOS>ATOM
      1 C          63.1165   85.0306   12.5024 C.ar    1  UNL1        0.2035
      2 N          62.2265   85.9259   11.6924 N.ar    1  UNL1       -0.2147
      3 C          62.1094   85.7254   10.2105 C.ar    1  UNL1        0.0911
      4 C          62.8825   84.6295    9.5386 C.ar    1  UNL1        0.0801
      5 C          63.7725   83.7341   10.3486 C.ar    1  UNL1        0.2645
      6 O          64.5455   82.6383    9.6767 O.2     1  UNL1       -0.2668
      7 N          63.8896   83.9347   11.8306 N.ar    1  UNL1       -0.2667
      8 C          64.7796   83.0393   12.6406 C.3     1  UNL1        0.1363
      9 C          61.7962   83.1044   14.3857 C.3     1  UNL1        0.0242
     10 C          62.5734   84.2681   14.9260 C.3     1  UNL1        0.1052
     11 C          62.6905   84.4686   16.4079 C.3     1  UNL1        0.1619
     12 O          63.4677   85.6323   16.9482 O.3     1  UNL1       -0.3502
     13 C          64.1278   86.5953   16.0066 C.3     1  UNL1        0.1637
     14 C          64.0108   86.3948   14.5247 C.3     1  UNL1        0.1256
     15 N          63.2336   85.2311   13.9844 N.pl3   1  UNL1       -0.2760
     16 C          61.2194   86.6208    9.4005 C.ar    1  UNL1        0.0485
     17 C          60.2518   86.0280    8.4196 C.ar    1  UNL1        0.0244
     18 C          59.3617   86.9233    7.6096 C.ar    1  UNL1        0.0991
     19 N          59.4393   88.4115    7.7805 N.ar    1  UNL1       -0.2400
     20 C          60.4069   89.0044    8.7615 C.ar    1  UNL1        0.1285
     21 C          61.2969   88.1090    9.5715 C.ar    1  UNL1        0.1606
     22 F          62.2645   88.7019   10.5525 F       1  UNL1       -0.2025
@<TRIPOS>BOND
     1    10     9    1
     2    10    11    1
     3    11    12    1
     4    12    13    1
     5    13    14    1
     6    14    15    1
     7    15     1    1
     8     1     2   ar
     9     2     3   ar
    10     3    16    1
    11    16    17   ar
    12    17    18   ar
    13    18    19   ar
    14    19    20   ar
    15    20    21   ar
    16    21    22    1
    17     3     4   ar
    18     4     5   ar
    19     5     6    2
    20     5     7   ar
    21     7     8    1
    22    15    10    1
    23     7     1   ar
    24    21    16   ar
