@<TRIPOS>MOLECULE
*****
 29 32 0 0 0
SMALL
GASTEIGER

@<TRIPOS>ATOM
      1 C          63.3254   86.7618   13.0424 C.ar    1  UNL1        0.0813
      2 C          62.5009   86.3691   11.8525 C.ar    1  UNL1        0.0365
      3 C          62.0872   87.4067   10.8514 C.ar    1  UNL1        0.0857
      4 C          62.4982   88.8369   11.0401 C.ar    1  UNL1        0.0989
      5 N          63.3227   89.2296   12.2300 N.ar    1  UNL1       -0.2906
      6 C          63.8733   90.5511   12.6777 C.ar    1  UNL1        0.0567
      7 C          63.7003   91.8631   11.9715 C.3     1  UNL1        0.0517
      8 C          64.6272   90.3303   13.9555 C.ar    1  UNL1        0.0730
      9 C          65.3406   91.3828   14.7515 C.3     1  UNL1        0.0534
     10 N          64.5426   88.8723   14.2976 N.ar    1  UNL1       -0.2299
     11 C          63.7363   88.1920   13.2312 C.ar    1  UNL1        0.1604
     12 N          61.2626   87.0141    9.6614 N.ar    1  UNL1       -0.2716
     13 C          59.8965   87.6027    9.4685 C.ar    1  UNL1        0.0830
     14 C          59.0719   87.2101    8.2786 C.ar    1  UNL1        0.0192
     15 C          59.6135   86.2288    7.2815 C.ar    1  UNL1        0.0064
     16 C          60.9796   85.6402    7.4745 C.ar    1  UNL1        0.0611
     17 C          61.8042   86.0329    8.6645 C.ar    1  UNL1        0.2649
     18 O          63.1703   85.4442    8.8574 O.2     1  UNL1       -0.2666
     19 N          63.7391   85.7242   14.0436 N.pl3   1  UNL1       -0.3267
     20 H          63.5805   85.8755   15.0034 H       1  UNL1        0.1472
     21 C          64.3943   84.4561   13.5824 C.3     1  UNL1        0.1137
     22 C          64.5869   82.8930   11.0291 C.3     1  UNL1        0.0307
     23 C          63.6724   82.4306   12.1245 C.ar    1  UNL1       -0.0245
     24 C          62.8541   81.1865   11.9432 C.ar    1  UNL1       -0.0045
     25 C          61.9397   80.7240   13.0385 C.ar    1  UNL1       -0.0007
     26 C          61.8434   81.5056   14.3152 C.ar    1  UNL1       -0.0045
     27 C          62.6616   82.7496   14.4965 C.ar    1  UNL1       -0.0245
     28 C          62.5653   83.5312   15.7732 C.3     1  UNL1        0.0307
     29 C          63.5761   83.2121   13.4011 C.ar    1  UNL1       -0.0105
@<TRIPOS>BOND
     1    22    23    1
     2    23    24   ar
     3    24    25   ar
     4    25    26   ar
     5    26    27   ar
     6    27    28    1
     7    27    29   ar
     8    29    21    1
     9    21    19    1
    10    19     1    1
    11     1     2   ar
    12     2     3   ar
    13     3    12    1
    14    12    13   ar
    15    13    14   ar
    16    14    15   ar
    17    15    16   ar
    18    16    17   ar
    19    17    18    2
    20     3     4   ar
    21     4     5   ar
    22     5     6   ar
    23     6     7    1
    24     6     8   ar
    25     8     9    1
    26     8    10   ar
    27    10    11   ar
    28    29    23   ar
    29    11     1   ar
    30    17    12   ar
    31    11     5   ar
    32    19    20    1
@<TRIPOS>MOLECULE
*****
 29 32 0 0 0
SMALL
GASTEIGER

@<TRIPOS>ATOM
      1 C          63.3272   86.7615   13.0431 C.ar    1  UNL1        0.0813
      2 C          62.5022   86.3685   11.8536 C.ar    1  UNL1        0.0365
      3 C          62.0883   87.4058   10.8523 C.ar    1  UNL1        0.0857
      4 C          62.4992   88.8361   11.0406 C.ar    1  UNL1        0.0989
      5 N          63.3242   89.2290   12.2301 N.ar    1  UNL1       -0.2906
      6 C          63.8749   90.5507   12.6773 C.ar    1  UNL1        0.0567
      7 C          63.7016   91.8625   11.9709 C.3     1  UNL1        0.0517
      8 C          64.6292   90.3302   13.9550 C.ar    1  UNL1        0.0730
      9 C          65.3428   91.3829   14.7505 C.3     1  UNL1        0.0534
     10 N          64.5448   88.8723   14.2974 N.ar    1  UNL1       -0.2299
     11 C          63.7382   88.1917   13.2314 C.ar    1  UNL1        0.1604
     12 N          61.2633   87.0129    9.6627 N.ar    1  UNL1       -0.2716
     13 C          59.8981   87.6035    9.4687 C.ar    1  UNL1        0.0830
     14 C          59.0732   87.2107    8.2792 C.ar    1  UNL1        0.0192
     15 C          59.6133   86.2271    7.2836 C.ar    1  UNL1        0.0064
     16 C          60.9784   85.6365    7.4777 C.ar    1  UNL1        0.0611
     17 C          61.8034   86.0295    8.6673 C.ar    1  UNL1        0.2649
     18 O          63.1685   85.4389    8.8613 O.2     1  UNL1       -0.2666
     19 N          63.7412   85.7241   14.0444 N.pl3   1  UNL1       -0.3267
     20 H          63.5830   85.8756   15.0042 H       1  UNL1        0.1472
     21 C          64.3964   84.4560   13.5833 C.3     1  UNL1        0.1137
     22 C          62.5652   83.5280   15.7709 C.3     1  UNL1        0.0307
     23 C          62.6619   82.7488   14.4928 C.ar    1  UNL1       -0.0245
     24 C          61.8431   81.5056   14.3085 C.ar    1  UNL1       -0.0045
     25 C          61.9398   80.7264   13.0304 C.ar    1  UNL1       -0.0007
     26 C          62.8554   81.1904   11.9366 C.ar    1  UNL1       -0.0045
     27 C          63.6742   82.4336   12.1209 C.ar    1  UNL1       -0.0245
     28 C          64.5898   82.8976   11.0271 C.3     1  UNL1        0.0307
     29 C          63.5775   83.2128   13.3990 C.ar    1  UNL1       -0.0105
@<TRIPOS>BOND
     1    22    23    1
     2    23    24   ar
     3    24    25   ar
     4    25    26   ar
     5    26    27   ar
     6    27    28    1
     7    27    29   ar
     8    29    21    1
     9    21    19    1
    10    19     1    1
    11     1     2   ar
    12     2     3   ar
    13     3    12    1
    14    12    13   ar
    15    13    14   ar
    16    14    15   ar
    17    15    16   ar
    18    16    17   ar
    19    17    18    2
    20     3     4   ar
    21     4     5   ar
    22     5     6   ar
    23     6     7    1
    24     6     8   ar
    25     8     9    1
    26     8    10   ar
    27    10    11   ar
    28    29    23   ar
    29    11     1   ar
    30    17    12   ar
    31    11     5   ar
    32    19    20    1
@<TRIPOS>MOLECULE
*****
 29 32 0 0 0
SMALL
GASTEIGER

@<TRIPOS>ATOM
      1 C          63.7179   87.1595   13.6849 C.ar    1  UNL1        0.0813
      2 C          64.4443   88.2442   14.4235 C.ar    1  UNL1        0.0365
      3 C          64.4107   89.6532   13.9102 C.ar    1  UNL1        0.0857
      4 C          63.6505   89.9775   12.6584 C.ar    1  UNL1        0.0989
      5 N          62.9241   88.8927   11.9198 N.ar    1  UNL1       -0.2906
      6 C          62.0974   88.9105   10.6683 C.ar    1  UNL1        0.0567
      7 C          61.8002   90.1150    9.8251 C.3     1  UNL1        0.0517
      8 C          61.6202   87.5125   10.4081 C.ar    1  UNL1        0.0730
      9 C          60.7619   87.0734    9.2589 C.3     1  UNL1        0.0534
     10 N          62.1519   86.6306   11.4988 N.ar    1  UNL1       -0.2299
     11 C          62.9577   87.4837   12.4331 C.ar    1  UNL1        0.1604
     12 N          65.1371   90.7381   14.6488 N.ar    1  UNL1       -0.2716
     13 C          66.4818   91.2000   14.1709 C.ar    1  UNL1        0.0830
     14 C          67.2083   92.2848   14.9094 C.ar    1  UNL1        0.0192
     15 C          66.5901   92.9077   16.1259 C.ar    1  UNL1        0.0064
     16 C          65.2454   92.4457   16.6039 C.ar    1  UNL1        0.0611
     17 C          64.5189   91.3609   15.8653 C.ar    1  UNL1        0.2649
     18 O          63.1742   90.8990   16.3433 O.2     1  UNL1       -0.2666
     19 N          63.7515   85.7503   14.1982 N.pl3   1  UNL1       -0.3267
     20 H          63.3984   85.5441   15.0937 H       1  UNL1        0.1472
     21 C          64.3232   84.6556   13.3469 C.3     1  UNL1        0.1137
     22 C          62.6777   83.6137   15.6288 C.3     1  UNL1        0.0307
     23 C          62.7707   82.8312   14.3525 C.ar    1  UNL1       -0.0245
     24 C          62.0408   81.5276   14.2171 C.ar    1  UNL1       -0.0045
     25 C          62.1337   80.7451   12.9408 C.ar    1  UNL1       -0.0007
     26 C          62.9565   81.2661   11.7999 C.ar    1  UNL1       -0.0045
     27 C          63.6863   82.5695   11.9352 C.ar    1  UNL1       -0.0245
     28 C          64.5090   83.0904   10.7943 C.3     1  UNL1        0.0307
     29 C          63.5934   83.3521   13.2116 C.ar    1  UNL1       -0.0105
@<TRIPOS>BOND
     1    22    23    1
     2    23    24   ar
     3    24    25   ar
     4    25    26   ar
     5    26    27   ar
     6    27    28    1
     7    27    29   ar
     8    29    21    1
     9    21    19    1
    10    19     1    1
    11     1     2   ar
    12     2     3   ar
    13     3    12    1
    14    12    13   ar
    15    13    14   ar
    16    14    15   ar
    17    15    16   ar
    18    16    17   ar
    19    17    18    2
    20     3     4   ar
    21     4     5   ar
    22     5     6   ar
    23     6     7    1
    24     6     8   ar
    25     8     9    1
    26     8    10   ar
    27    10    11   ar
    28    29    23   ar
    29    11     1   ar
    30    17    12   ar
    31    11     5   ar
    32    19    20    1
@<TRIPOS>MOLECULE
*****
 29 32 0 0 0
SMALL
GASTEIGER

@<TRIPOS>ATOM
      1 C          63.6414   87.1563   13.6189 C.ar    1  UNL1        0.0813
      2 C          64.3563   88.2299   14.3847 C.ar    1  UNL1        0.0365
      3 C          64.3307   89.6463   13.8918 C.ar    1  UNL1        0.0857
      4 C          63.5902   89.9892   12.6331 C.ar    1  UNL1        0.0989
      5 N          62.8754   88.9157   11.8674 N.ar    1  UNL1       -0.2906
      6 C          62.0685   88.9522   10.6035 C.ar    1  UNL1        0.0567
      7 C          61.7845   90.1689    9.7736 C.3     1  UNL1        0.0517
      8 C          61.5953   87.5582   10.3152 C.ar    1  UNL1        0.0730
      9 C          60.7551   87.1364    9.1463 C.3     1  UNL1        0.0534
     10 N          62.1098   86.6602   11.4009 N.ar    1  UNL1       -0.2299
     11 C          62.9010   87.4992   12.3602 C.ar    1  UNL1        0.1604
     12 N          65.0455   90.7200   14.6576 N.ar    1  UNL1       -0.2716
     13 C          66.3780   91.2192   14.1829 C.ar    1  UNL1        0.0830
     14 C          67.0928   92.2928   14.9486 C.ar    1  UNL1        0.0192
     15 C          66.4752   92.8672   16.1891 C.ar    1  UNL1        0.0064
     16 C          65.1427   92.3680   16.6638 C.ar    1  UNL1        0.0611
     17 C          64.4279   91.2943   15.8980 C.ar    1  UNL1        0.2649
     18 O          63.0954   90.7951   16.3727 O.2     1  UNL1       -0.2666
     19 N          63.6670   85.7398   14.1117 N.pl3   1  UNL1       -0.3267
     20 H          63.3065   85.5216   15.0015 H       1  UNL1        0.1472
     21 C          64.2419   84.6558   13.2489 C.3     1  UNL1        0.1137
     22 C          64.3819   83.0760   10.7024 C.3     1  UNL1        0.0307
     23 C          63.6192   82.5391   11.8772 C.ar    1  UNL1       -0.0245
     24 C          62.9265   81.2123   11.7787 C.ar    1  UNL1       -0.0045
     25 C          62.1638   80.6754   12.9534 C.ar    1  UNL1       -0.0007
     26 C          62.0938   81.4653   14.2266 C.ar    1  UNL1       -0.0045
     27 C          62.7865   82.7920   14.3252 C.ar    1  UNL1       -0.0245
     28 C          62.7165   83.5819   15.5984 C.3     1  UNL1        0.0307
     29 C          63.5492   83.3290   13.1504 C.ar    1  UNL1       -0.0105
@<TRIPOS>BOND
     1    22    23    1
     2    23    24   ar
     3    24    25   ar
     4    25    26   ar
     5    26    27   ar
     6    27    28    1
     7    27    29   ar
     8    29    21    1
     9    21    19    1
    10    19     1    1
    11     1     2   ar
    12     2     3   ar
    13     3    12    1
    14    12    13   ar
    15    13    14   ar
    16    14    15   ar
    17    15    16   ar
    18    16    17   ar
    19    17    18    2
    20     3     4   ar
    21     4     5   ar
    22     5     6   ar
    23     6     7    1
    24     6     8   ar
    25     8     9    1
    26     8    10   ar
    27    10    11   ar
    28    29    23   ar
    29    11     1   ar
    30    17    12   ar
    31    11     5   ar
    32    19    20    1
@<TRIPOS>MOLECULE
*****
 29 32 0 0 0
SMALL
GASTEIGER

@<TRIPOS>ATOM
      1 C          62.1229   88.4296   11.3985 C.ar    1  UNL1        0.0813
      2 C          62.6483   87.2020   12.0818 C.ar    1  UNL1        0.0365
      3 C          62.3648   85.8452   11.5086 C.ar    1  UNL1        0.0857
      4 C          61.5559   85.7160   10.2520 C.ar    1  UNL1        0.0989
      5 N          61.0305   86.9436    9.5687 N.ar    1  UNL1       -0.2906
      6 C          60.2102   87.1274    8.3264 C.ar    1  UNL1        0.0567
      7 C          59.7026   86.0330    7.4351 C.3     1  UNL1        0.0517
      8 C          59.9867   88.5979    8.1319 C.ar    1  UNL1        0.0730
      9 C          59.2163   89.2320    7.0118 C.3     1  UNL1        0.0534
     10 N          60.6689   89.3229    9.2540 N.ar    1  UNL1       -0.2299
     11 C          61.3140   88.3004   10.1420 C.ar    1  UNL1        0.1604
     12 N          62.8903   84.6176   12.1919 N.ar    1  UNL1       -0.2716
     13 C          62.6616   84.4212   13.6613 C.ar    1  UNL1        0.0830
     14 C          63.1870   83.1936   14.3446 C.ar    1  UNL1        0.0192
     15 C          63.9411   82.1623   13.5585 C.ar    1  UNL1        0.0064
     16 C          64.1698   82.3587   12.0890 C.ar    1  UNL1        0.0611
     17 C          63.6443   83.5864   11.4057 C.ar    1  UNL1        0.2649
     18 O          63.8730   83.7827    9.9363 O.2     1  UNL1       -0.2666
     19 N          62.4064   89.7865   11.9718 N.pl3   1  UNL1       -0.3267
     20 H          61.7578   90.5172   11.8509 H       1  UNL1        0.1472
     21 C          63.6780   90.0299   12.7292 C.3     1  UNL1        0.1137
     22 C          65.5180   91.1275   14.8292 C.3     1  UNL1        0.0307
     23 C          65.4199   91.8002   13.4921 C.ar    1  UNL1       -0.0245
     24 C          66.2417   93.0217   13.2049 C.ar    1  UNL1       -0.0045
     25 C          66.1436   93.6944   11.8679 C.ar    1  UNL1       -0.0007
     26 C          65.2236   93.1457   10.8179 C.ar    1  UNL1       -0.0045
     27 C          64.4017   91.9242   11.1050 C.ar    1  UNL1       -0.0245
     28 C          63.4817   91.3754   10.0550 C.3     1  UNL1        0.0307
     29 C          64.4998   91.2514   12.4421 C.ar    1  UNL1       -0.0105
@<TRIPOS>BOND
     1    22    23    1
     2    23    24   ar
     3    24    25   ar
     4    25    26   ar
     5    26    27   ar
     6    27    28    1
     7    27    29   ar
     8    29    21    1
     9    21    19    1
    10    19     1    1
    11     1     2   ar
    12     2     3   ar
    13     3    12    1
    14    12    13   ar
    15    13    14   ar
    16    14    15   ar
    17    15    16   ar
    18    16    17   ar
    19    17    18    2
    20     3     4   ar
    21     4     5   ar
    22     5     6   ar
    23     6     7    1
    24     6     8   ar
    25     8     9    1
    26     8    10   ar
    27    10    11   ar
    28    29    23   ar
    29    11     1   ar
    30    17    12   ar
    31    11     5   ar
    32    19    20    1
@<TRIPOS>MOLECULE
*****
 29 32 0 0 0
SMALL
GASTEIGER

@<TRIPOS>ATOM
      1 C          62.2655   88.1240   11.6467 C.ar    1  UNL1        0.0813
      2 C          62.8020   86.8514   12.2319 C.ar    1  UNL1        0.0365
      3 C          62.5348   85.5418   11.5510 C.ar    1  UNL1        0.0857
      4 C          61.7311   85.5049   10.2851 C.ar    1  UNL1        0.0989
      5 N          61.1946   86.7776    9.6999 N.ar    1  UNL1       -0.2906
      6 C          60.3761   87.0514    8.4731 C.ar    1  UNL1        0.0567
      7 C          59.8829   86.0264    7.4954 C.3     1  UNL1        0.0517
      8 C          60.1374   88.5303    8.3957 C.ar    1  UNL1        0.0730
      9 C          59.3636   89.2438    7.3269 C.3     1  UNL1        0.0534
     10 N          60.8084   89.1705    9.5747 N.ar    1  UNL1       -0.2299
     11 C          61.4618   88.0871   10.3808 C.ar    1  UNL1        0.1604
     12 N          63.0714   84.2691   12.1362 N.ar    1  UNL1       -0.2716
     13 C          63.8743   83.3317   11.2837 C.ar    1  UNL1        0.0830
     14 C          64.4108   82.0590   11.8688 C.ar    1  UNL1        0.0192
     15 C          64.1444   81.7236   13.3064 C.ar    1  UNL1        0.0064
     16 C          63.3415   82.6610   14.1588 C.ar    1  UNL1        0.0611
     17 C          62.8050   83.9337   13.5737 C.ar    1  UNL1        0.2649
     18 O          62.0020   84.8711   14.4262 O.2     1  UNL1       -0.2666
     19 N          62.5327   89.4337   12.3276 N.pl3   1  UNL1       -0.3267
     20 H          62.0626   89.6593   13.1627 H       1  UNL1        0.1472
     21 C          63.5159   90.3997   11.7359 C.3     1  UNL1        0.1137
     22 C          65.0355   92.7562   10.6691 C.3     1  UNL1        0.0307
     23 C          65.2202   92.3276   12.0947 C.ar    1  UNL1       -0.0245
     24 C          66.1647   93.0773   12.9869 C.ar    1  UNL1       -0.0045
     25 C          66.3494   92.6487   14.4124 C.ar    1  UNL1       -0.0007
     26 C          65.5896   91.4705   14.9458 C.ar    1  UNL1       -0.0045
     27 C          64.6451   90.7208   14.0537 C.ar    1  UNL1       -0.0245
     28 C          63.8854   89.5426   14.5870 C.3     1  UNL1        0.0307
     29 C          64.4604   91.1494   12.6280 C.ar    1  UNL1       -0.0105
@<TRIPOS>BOND
     1    22    23    1
     2    23    24   ar
     3    24    25   ar
     4    25    26   ar
     5    26    27   ar
     6    27    28    1
     7    27    29   ar
     8    29    21    1
     9    21    19    1
    10    19     1    1
    11     1     2   ar
    12     2     3   ar
    13     3    12    1
    14    12    13   ar
    15    13    14   ar
    16    14    15   ar
    17    15    16   ar
    18    16    17   ar
    19    17    18    2
    20     3     4   ar
    21     4     5   ar
    22     5     6   ar
    23     6     7    1
    24     6     8   ar
    25     8     9    1
    26     8    10   ar
    27    10    11   ar
    28    29    23   ar
    29    11     1   ar
    30    17    12   ar
    31    11     5   ar
    32    19    20    1
@<TRIPOS>MOLECULE
*****
 29 32 0 0 0
SMALL
GASTEIGER

@<TRIPOS>ATOM
      1 C          63.1766   87.8528   12.5809 C.ar    1  UNL1        0.0813
      2 C          62.3425   88.1459   11.3692 C.ar    1  UNL1        0.0365
      3 C          61.6629   87.0263   10.6379 C.ar    1  UNL1        0.0857
      4 C          61.8173   85.6138   11.1184 C.ar    1  UNL1        0.0989
      5 N          62.6515   85.3208   12.3302 N.ar    1  UNL1       -0.2906
      6 C          62.9843   84.0384   13.0334 C.ar    1  UNL1        0.0567
      7 C          62.5143   82.6694   12.6399 C.3     1  UNL1        0.0517
      8 C          63.8696   84.3653   14.1993 C.ar    1  UNL1        0.0730
      9 C          64.4404   83.3805   15.1764 C.3     1  UNL1        0.0534
     10 N          64.0840   85.8498   14.2167 N.ar    1  UNL1       -0.2299
     11 C          63.3311   86.4403   13.0614 C.ar    1  UNL1        0.1604
     12 N          60.8287   87.3193    9.4261 N.ar    1  UNL1       -0.2716
     13 C          60.5147   86.2251    8.4494 C.ar    1  UNL1        0.0830
     14 C          59.6805   86.5180    7.2376 C.ar    1  UNL1        0.0192
     15 C          59.1604   87.9052    7.0026 C.ar    1  UNL1        0.0064
     16 C          59.4745   88.9995    7.9793 C.ar    1  UNL1        0.0611
     17 C          60.3086   88.7065    9.1911 C.ar    1  UNL1        0.2649
     18 O          60.6227   89.8007   10.1679 O.2     1  UNL1       -0.2666
     19 N          63.8563   88.9724   13.3122 N.pl3   1  UNL1       -0.3267
     20 H          64.5754   88.7754   13.9551 H       1  UNL1        0.1472
     21 C          63.4402   90.3920   13.0640 C.3     1  UNL1        0.1137
     22 C          63.4018   91.3586   10.2243 C.3     1  UNL1        0.0307
     23 C          64.4311   91.8829   11.1811 C.ar    1  UNL1       -0.0245
     24 C          65.4413   92.8905   10.7182 C.ar    1  UNL1       -0.0045
     25 C          66.4705   93.4148   11.6750 C.ar    1  UNL1       -0.0007
     26 C          66.4897   92.9315   13.0949 C.ar    1  UNL1       -0.0045
     27 C          65.4796   91.9239   13.5579 C.ar    1  UNL1       -0.0245
     28 C          65.4988   91.4406   14.9778 C.3     1  UNL1        0.0307
     29 C          64.4503   91.3996   12.6010 C.ar    1  UNL1       -0.0105
@<TRIPOS>BOND
     1    22    23    1
     2    23    24   ar
     3    24    25   ar
     4    25    26   ar
     5    26    27   ar
     6    27    28    1
     7    27    29   ar
     8    29    21    1
     9    21    19    1
    10    19     1    1
    11     1     2   ar
    12     2     3   ar
    13     3    12    1
    14    12    13   ar
    15    13    14   ar
    16    14    15   ar
    17    15    16   ar
    18    16    17   ar
    19    17    18    2
    20     3     4   ar
    21     4     5   ar
    22     5     6   ar
    23     6     7    1
    24     6     8   ar
    25     8     9    1
    26     8    10   ar
    27    10    11   ar
    28    29    23   ar
    29    11     1   ar
    30    17    12   ar
    31    11     5   ar
    32    19    20    1
@<TRIPOS>MOLECULE
*****
 29 32 0 0 0
SMALL
GASTEIGER

@<TRIPOS>ATOM
      1 C          63.2561   87.5396   12.7264 C.ar    1  UNL1        0.0813
      2 C          62.4400   87.7243   11.4815 C.ar    1  UNL1        0.0365
      3 C          61.8219   86.5358   10.8068 C.ar    1  UNL1        0.0857
      4 C          62.0199   85.1626   11.3769 C.ar    1  UNL1        0.0989
      5 N          62.8359   84.9779   12.6218 N.ar    1  UNL1       -0.2906
      6 C          63.2018   83.7552   13.4100 C.ar    1  UNL1        0.0567
      7 C          62.7948   82.3469   13.0920 C.3     1  UNL1        0.0517
      8 C          64.0460   84.1880   14.5718 C.ar    1  UNL1        0.0730
      9 C          64.6315   83.2885   15.6198 C.3     1  UNL1        0.0534
     10 N          64.2020   85.6782   14.5018 N.ar    1  UNL1       -0.2299
     11 C          63.4541   86.1664   13.2966 C.ar    1  UNL1        0.1604
     12 N          61.0057   86.7205    9.5618 N.ar    1  UNL1       -0.2716
     13 C          59.8243   87.6446    9.5698 C.ar    1  UNL1        0.0830
     14 C          59.0081   87.8293    8.3249 C.ar    1  UNL1        0.0192
     15 C          59.3734   87.0898    7.0719 C.ar    1  UNL1        0.0064
     16 C          60.5549   86.1657    7.0640 C.ar    1  UNL1        0.0611
     17 C          61.3711   85.9810    8.3089 C.ar    1  UNL1        0.2649
     18 O          62.5525   85.0568    8.3010 O.2     1  UNL1       -0.2666
     19 N          63.8743   88.7281   13.4012 N.pl3   1  UNL1       -0.3267
     20 H          64.6208   88.6036   14.0308 H       1  UNL1        0.1472
     21 C          63.3549   90.1063   13.1167 C.3     1  UNL1        0.1137
     22 C          65.4383   91.2636   14.9389 C.3     1  UNL1        0.0307
     23 C          65.3272   91.7478   13.5236 C.ar    1  UNL1       -0.0245
     24 C          66.2578   92.8107   13.0194 C.ar    1  UNL1       -0.0045
     25 C          66.1467   93.2950   11.6041 C.ar    1  UNL1       -0.0007
     26 C          65.1051   92.7164   10.6930 C.ar    1  UNL1       -0.0045
     27 C          64.1745   91.6535   11.1972 C.ar    1  UNL1       -0.0245
     28 C          63.1328   91.0749   10.2860 C.3     1  UNL1        0.0307
     29 C          64.2855   91.1692   12.6125 C.ar    1  UNL1       -0.0105
@<TRIPOS>BOND
     1    22    23    1
     2    23    24   ar
     3    24    25   ar
     4    25    26   ar
     5    26    27   ar
     6    27    28    1
     7    27    29   ar
     8    29    21    1
     9    21    19    1
    10    19     1    1
    11     1     2   ar
    12     2     3   ar
    13     3    12    1
    14    12    13   ar
    15    13    14   ar
    16    14    15   ar
    17    15    16   ar
    18    16    17   ar
    19    17    18    2
    20     3     4   ar
    21     4     5   ar
    22     5     6   ar
    23     6     7    1
    24     6     8   ar
    25     8     9    1
    26     8    10   ar
    27    10    11   ar
    28    29    23   ar
    29    11     1   ar
    30    17    12   ar
    31    11     5   ar
    32    19    20    1
@<TRIPOS>MOLECULE
*****
 29 32 0 0 0
SMALL
GASTEIGER

@<TRIPOS>ATOM
      1 C          63.6471   88.7567   13.2519 C.ar    1  UNL1        0.0813
      2 C          62.7504   88.1733   12.2004 C.ar    1  UNL1        0.0365
      3 C          62.5035   88.9232   10.9250 C.ar    1  UNL1        0.0857
      4 C          63.1534   90.2564   10.7011 C.ar    1  UNL1        0.0989
      5 N          64.0501   90.8398   11.7525 N.ar    1  UNL1       -0.2906
      6 C          64.8231   92.1239   11.8128 C.ar    1  UNL1        0.0567
      7 C          64.8642   93.1790   10.7474 C.3     1  UNL1        0.0517
      8 C          65.5476   92.1676   13.1255 C.ar    1  UNL1        0.0730
      9 C          66.4406   93.2742   13.6032 C.3     1  UNL1        0.0534
     10 N          65.2225   90.9105   13.8765 N.ar    1  UNL1       -0.2299
     11 C          64.2970   90.0899   13.0279 C.ar    1  UNL1        0.1604
     12 N          61.6068   88.3398    9.8735 N.ar    1  UNL1       -0.2716
     13 C          61.9039   86.9853    9.3017 C.ar    1  UNL1        0.0830
     14 C          61.0072   86.4019    8.2503 C.ar    1  UNL1        0.0192
     15 C          59.8134   87.1731    7.7705 C.ar    1  UNL1        0.0064
     16 C          59.5163   88.5277    8.3422 C.ar    1  UNL1        0.0611
     17 C          60.4131   89.1111    9.3938 C.ar    1  UNL1        0.2649
     18 O          60.1160   90.4656    9.9655 O.2     1  UNL1       -0.2666
     19 N          63.8939   88.0068   14.5274 N.pl3   1  UNL1       -0.3267
     20 H          63.6239   88.3989   15.3891 H       1  UNL1        0.1472
     21 C          64.5523   86.6595   14.4899 C.3     1  UNL1        0.1137
     22 C          64.2616   84.8019   12.1522 C.3     1  UNL1        0.0307
     23 C          63.5782   84.4871   13.4498 C.ar    1  UNL1       -0.0245
     24 C          62.7494   83.2434   13.5787 C.ar    1  UNL1       -0.0045
     25 C          62.0661   82.9287   14.8763 C.ar    1  UNL1       -0.0007
     26 C          62.2114   83.8575   16.0451 C.ar    1  UNL1       -0.0045
     27 C          63.0402   85.1011   15.9163 C.ar    1  UNL1       -0.0245
     28 C          63.1855   86.0299   17.0852 C.3     1  UNL1        0.0307
     29 C          63.7236   85.4159   14.6187 C.ar    1  UNL1       -0.0105
@<TRIPOS>BOND
     1    22    23    1
     2    23    24   ar
     3    24    25   ar
     4    25    26   ar
     5    26    27   ar
     6    27    28    1
     7    27    29   ar
     8    29    21    1
     9    21    19    1
    10    19     1    1
    11     1     2   ar
    12     2     3   ar
    13     3    12    1
    14    12    13   ar
    15    13    14   ar
    16    14    15   ar
    17    15    16   ar
    18    16    17   ar
    19    17    18    2
    20     3     4   ar
    21     4     5   ar
    22     5     6   ar
    23     6     7    1
    24     6     8   ar
    25     8     9    1
    26     8    10   ar
    27    10    11   ar
    28    29    23   ar
    29    11     1   ar
    30    17    12   ar
    31    11     5   ar
    32    19    20    1
