@<TRIPOS>MOLECULE
*****
 24 28 0 0 0
SMALL
GASTEIGER

@<TRIPOS>ATOM
      1 O          61.9617   84.8622   14.3406 O.3     1  UNL1       -0.3800
      2 C          62.4399   84.1711   13.0982 C.3     1  UNL1        0.1346
      3 C          62.4717   82.6726   13.0384 C.ar    1  UNL1        0.0034
      4 C          62.0254   81.8653   14.2212 C.ar    1  UNL1        0.0184
      5 C          62.0572   80.3669   14.1615 C.ar    1  UNL1        0.0986
      6 N          62.5354   79.6758   12.9190 N.ar    1  UNL1       -0.2427
      7 C          62.9818   80.4831   11.7363 C.ar    1  UNL1        0.0943
      8 C          62.9500   81.9816   11.7960 C.ar    1  UNL1       -0.0047
      9 C          63.3963   82.7889   10.6133 C.3     1  UNL1        0.0279
     10 C          63.3645   84.2874   10.6730 C.3     1  UNL1        0.0097
     11 C          62.8863   84.9785   11.9154 C.3     1  UNL1        0.0565
     12 H          61.7127   84.1995   15.0037 H       1  UNL1        0.2108
     13 C          62.8545   86.4770   11.9751 C.3     1  UNL1        0.1121
     14 C          62.1468   87.3829   11.0115 C.ar    1  UNL1       -0.0002
     15 C          61.3205   87.1018    9.7916 C.ar    1  UNL1       -0.0024
     16 C          60.7270   88.2361    9.0100 C.ar    1  UNL1       -0.0003
     17 C          60.9598   89.6517    9.4483 C.ar    1  UNL1        0.0000
     18 C          61.7862   89.9328   10.6681 C.ar    1  UNL1        0.0012
     19 C          62.3796   88.7985   11.4497 C.ar    1  UNL1        0.0152
     20 C          63.2312   88.7673   12.6842 C.ar    1  UNL1        0.0804
     21 C          63.9015   89.6230   13.7180 C.ar    1  UNL1        0.1177
     22 N          64.6092   88.7170   14.6816 N.ar    1  UNL1       -0.2223
     23 C          64.3763   87.3015   14.2433 C.ar    1  UNL1        0.1788
     24 N          63.5247   87.3326   13.0089 N.ar    1  UNL1       -0.3069
@<TRIPOS>BOND
     1     2     1    1
     2     2     3    1
     3     3     4   ar
     4     4     5   ar
     5     5     6   ar
     6     6     7   ar
     7     7     8   ar
     8     8     9    1
     9     9    10    1
    10    11    10    1
    11    11    13    1
    12    13    14    1
    13    14    15   ar
    14    15    16   ar
    15    16    17   ar
    16    17    18   ar
    17    18    19   ar
    18    19    20    1
    19    20    21   ar
    20    21    22   ar
    21    22    23   ar
    22    23    24   ar
    23    11     2    1
    24    13    24    1
    25     8     3   ar
    26    19    14   ar
    27    24    20   ar
    28     1    12    1
@<TRIPOS>MOLECULE
*****
 24 28 0 0 0
SMALL
GASTEIGER

@<TRIPOS>ATOM
      1 O          61.6857   85.8575   13.1539 O.3     1  UNL1       -0.3800
      2 C          62.3823   85.0187   12.1238 C.3     1  UNL1        0.1346
      3 C          62.9158   83.6664   12.4937 C.ar    1  UNL1        0.0034
      4 C          62.7526   83.1531   13.8936 C.ar    1  UNL1        0.0184
      5 C          63.2860   81.8008   14.2634 C.ar    1  UNL1        0.0986
      6 N          63.9827   80.9620   13.2334 N.ar    1  UNL1       -0.2427
      7 C          64.1459   81.4753   11.8335 C.ar    1  UNL1        0.0943
      8 C          63.6124   82.8276   11.4636 C.ar    1  UNL1       -0.0047
      9 C          63.7756   83.3410   10.0637 C.3     1  UNL1        0.0279
     10 C          63.2421   84.6932    9.6939 C.3     1  UNL1        0.0097
     11 C          62.5455   85.5321   10.7238 C.3     1  UNL1        0.0565
     12 H          61.6658   85.3816   13.9989 H       1  UNL1        0.2108
     13 C          62.0120   86.8844   10.3539 C.3     1  UNL1        0.1121
     14 C          61.0153   87.1729    9.2708 C.ar    1  UNL1       -0.0002
     15 C          60.3002   86.2795    8.3009 C.ar    1  UNL1       -0.0024
     16 C          59.3388   86.8657    7.3100 C.ar    1  UNL1       -0.0003
     17 C          59.0923   88.3451    7.2889 C.ar    1  UNL1        0.0000
     18 C          59.8074   89.2385    8.2588 C.ar    1  UNL1        0.0012
     19 C          60.7689   88.6523    9.2497 C.ar    1  UNL1        0.0152
     20 C          61.6133   89.2782   10.3198 C.ar    1  UNL1        0.0804
     21 C          61.9829   90.5794   10.9682 C.ar    1  UNL1        0.1177
     22 N          62.9797   90.2908   12.0514 N.ar    1  UNL1       -0.2223
     23 C          63.2261   88.8114   12.0725 C.ar    1  UNL1        0.1788
     24 N          62.3817   88.1855   11.0023 N.ar    1  UNL1       -0.3069
@<TRIPOS>BOND
     1     2     1    1
     2     2     3    1
     3     3     4   ar
     4     4     5   ar
     5     5     6   ar
     6     6     7   ar
     7     7     8   ar
     8     8     9    1
     9     9    10    1
    10    11    10    1
    11    11    13    1
    12    13    14    1
    13    14    15   ar
    14    15    16   ar
    15    16    17   ar
    16    17    18   ar
    17    18    19   ar
    18    19    20    1
    19    20    21   ar
    20    21    22   ar
    21    22    23   ar
    22    23    24   ar
    23    11     2    1
    24    13    24    1
    25     8     3   ar
    26    19    14   ar
    27    24    20   ar
    28     1    12    1
@<TRIPOS>MOLECULE
*****
 24 28 0 0 0
SMALL
GASTEIGER

@<TRIPOS>ATOM
      1 O          61.4783   85.8091   12.7936 O.3     1  UNL1       -0.3800
      2 C          62.2885   84.9758   11.8454 C.3     1  UNL1        0.1346
      3 C          62.9267   83.7046   12.3214 C.ar    1  UNL1        0.0034
      4 C          62.7547   83.2667   13.7457 C.ar    1  UNL1        0.0184
      5 C          63.3930   81.9954   14.2217 C.ar    1  UNL1        0.0986
      6 N          64.2032   81.1622   13.2734 N.ar    1  UNL1       -0.2427
      7 C          64.3752   81.6000   11.8492 C.ar    1  UNL1        0.0943
      8 C          63.7369   82.8713   11.3731 C.ar    1  UNL1       -0.0047
      9 C          63.9089   83.3093    9.9489 C.3     1  UNL1        0.0279
     10 C          63.2707   84.5805    9.4728 C.3     1  UNL1        0.0097
     11 C          62.4605   85.4138   10.4210 C.3     1  UNL1        0.0565
     12 H          61.4678   85.3871   13.6669 H       1  UNL1        0.2108
     13 C          61.8223   86.6851    9.9450 C.3     1  UNL1        0.1121
     14 C          62.0926   88.0607   10.4783 C.ar    1  UNL1       -0.0002
     15 C          63.0056   88.5563   11.5603 C.ar    1  UNL1       -0.0024
     16 C          63.0651   90.0208   11.8790 C.ar    1  UNL1       -0.0003
     17 C          62.2116   90.9897   11.1157 C.ar    1  UNL1        0.0000
     18 C          61.2986   90.4942   10.0337 C.ar    1  UNL1        0.0012
     19 C          61.2391   89.0297    9.7150 C.ar    1  UNL1        0.0152
     20 C          60.4413   88.2529    8.7100 C.ar    1  UNL1        0.0804
     21 C          59.4207   88.3717    7.6171 C.ar    1  UNL1        0.1177
     22 N          59.1504   86.9959    7.0838 N.ar    1  UNL1       -0.2223
     23 C          60.0039   86.0269    7.8471 C.ar    1  UNL1        0.1788
     24 N          60.8017   86.8038    8.8521 N.ar    1  UNL1       -0.3069
@<TRIPOS>BOND
     1     2     1    1
     2     2     3    1
     3     3     4   ar
     4     4     5   ar
     5     5     6   ar
     6     6     7   ar
     7     7     8   ar
     8     8     9    1
     9     9    10    1
    10    11    10    1
    11    11    13    1
    12    13    14    1
    13    14    15   ar
    14    15    16   ar
    15    16    17   ar
    16    17    18   ar
    17    18    19   ar
    18    19    20    1
    19    20    21   ar
    20    21    22   ar
    21    22    23   ar
    22    23    24   ar
    23    11     2    1
    24    13    24    1
    25     8     3   ar
    26    19    14   ar
    27    24    20   ar
    28     1    12    1
@<TRIPOS>MOLECULE
*****
 24 28 0 0 0
SMALL
GASTEIGER

@<TRIPOS>ATOM
      1 O          61.8704   84.8738   14.0536 O.3     1  UNL1       -0.3800
      2 C          62.3865   84.1756   12.8305 C.3     1  UNL1        0.1346
      3 C          62.4806   82.6787   12.8048 C.ar    1  UNL1        0.0034
      4 C          62.0586   81.8802   14.0024 C.ar    1  UNL1        0.0184
      5 C          62.1527   80.3834   13.9767 C.ar    1  UNL1        0.0986
      6 N          62.6688   79.6852   12.7536 N.ar    1  UNL1       -0.2427
      7 C          63.0908   80.4837   11.5560 C.ar    1  UNL1        0.0943
      8 C          62.9967   81.9805   11.5817 C.ar    1  UNL1       -0.0047
      9 C          63.4187   82.7792   10.3842 C.3     1  UNL1        0.0279
     10 C          63.3247   84.2760   10.4098 C.3     1  UNL1        0.0097
     11 C          62.8086   84.9742   11.6329 C.3     1  UNL1        0.0565
     12 H          61.6437   84.2163   14.7298 H       1  UNL1        0.2108
     13 C          62.7145   86.4711   11.6585 C.3     1  UNL1        0.1121
     14 C          63.3176   87.3748   12.6927 C.ar    1  UNL1       -0.0002
     15 C          64.1332   87.0924   13.9195 C.ar    1  UNL1       -0.0024
     16 C          64.6078   88.2246   14.7815 C.ar    1  UNL1       -0.0003
     17 C          64.2669   89.6390   14.4166 C.ar    1  UNL1        0.0000
     18 C          63.4513   89.9213   13.1898 C.ar    1  UNL1        0.0012
     19 C          62.9767   88.7892   12.3279 C.ar    1  UNL1        0.0152
     20 C          62.1629   88.7596   11.0682 C.ar    1  UNL1        0.0804
     21 C          61.4491   89.6156   10.0641 C.ar    1  UNL1        0.1177
     22 N          60.8460   88.7118    9.0300 N.ar    1  UNL1       -0.2223
     23 C          61.1870   87.2974    9.3948 C.ar    1  UNL1        0.1788
     24 N          62.0008   87.3270   10.6545 N.ar    1  UNL1       -0.3069
@<TRIPOS>BOND
     1     2     1    1
     2     2     3    1
     3     3     4   ar
     4     4     5   ar
     5     5     6   ar
     6     6     7   ar
     7     7     8   ar
     8     8     9    1
     9     9    10    1
    10    11    10    1
    11    11    13    1
    12    13    14    1
    13    14    15   ar
    14    15    16   ar
    15    16    17   ar
    16    17    18   ar
    17    18    19   ar
    18    19    20    1
    19    20    21   ar
    20    21    22   ar
    21    22    23   ar
    22    23    24   ar
    23    11     2    1
    24    13    24    1
    25     8     3   ar
    26    19    14   ar
    27    24    20   ar
    28     1    12    1
@<TRIPOS>MOLECULE
*****
 24 28 0 0 0
SMALL
GASTEIGER

@<TRIPOS>ATOM
      1 O          63.6115   87.7463   12.6839 O.3     1  UNL1       -0.3800
      2 C          62.7914   88.4791   11.6639 C.3     1  UNL1        0.1346
      3 C          61.9705   87.7121   10.6700 C.ar    1  UNL1        0.0034
      4 C          61.9698   86.2123   10.6961 C.ar    1  UNL1        0.0184
      5 C          61.1489   85.4453    9.7022 C.ar    1  UNL1        0.0986
      6 N          60.3288   86.1781    8.6822 N.ar    1  UNL1       -0.2427
      7 C          60.3295   87.6778    8.6560 C.ar    1  UNL1        0.0943
      8 C          61.1504   88.4448    9.6500 C.ar    1  UNL1       -0.0047
      9 C          61.1511   89.9446    9.6239 C.3     1  UNL1        0.0279
     10 C          61.9720   90.7116   10.6178 C.3     1  UNL1        0.0097
     11 C          62.7921   89.9789   11.6378 C.3     1  UNL1        0.0565
     12 H          63.4991   86.7904   12.5631 H       1  UNL1        0.2108
     13 C          63.6130   90.7459   12.6317 C.3     1  UNL1        0.1121
     14 C          64.6542   91.7759   12.3075 C.ar    1  UNL1       -0.0002
     15 C          65.1590   92.3165   11.0027 C.ar    1  UNL1       -0.0024
     16 C          66.2311   93.3655   10.9900 C.ar    1  UNL1       -0.0003
     17 C          66.7984   93.8738   12.2822 C.ar    1  UNL1        0.0000
     18 C          66.2936   93.3331   13.5871 C.ar    1  UNL1        0.0012
     19 C          65.2215   92.2841   13.5998 C.ar    1  UNL1        0.0152
     20 C          64.5308   91.5683   14.7225 C.ar    1  UNL1        0.0804
     21 C          64.4546   91.4401   16.2152 C.ar    1  UNL1        0.1177
     22 N          63.4134   90.4101   16.5393 N.ar    1  UNL1       -0.2223
     23 C          62.8461   89.9018   15.2471 C.ar    1  UNL1        0.1788
     24 N          63.5367   90.6176   14.1243 N.ar    1  UNL1       -0.3069
@<TRIPOS>BOND
     1     2     1    1
     2     2     3    1
     3     3     4   ar
     4     4     5   ar
     5     5     6   ar
     6     6     7   ar
     7     7     8   ar
     8     8     9    1
     9     9    10    1
    10    11    10    1
    11    11    13    1
    12    13    14    1
    13    14    15   ar
    14    15    16   ar
    15    16    17   ar
    16    17    18   ar
    17    18    19   ar
    18    19    20    1
    19    20    21   ar
    20    21    22   ar
    21    22    23   ar
    22    23    24   ar
    23    11     2    1
    24    13    24    1
    25     8     3   ar
    26    19    14   ar
    27    24    20   ar
    28     1    12    1
@<TRIPOS>MOLECULE
*****
 24 28 0 0 0
SMALL
GASTEIGER

@<TRIPOS>ATOM
      1 O          63.4977   88.7499   14.0642 O.3     1  UNL1       -0.3800
      2 C          63.8355   89.8159   13.0644 C.3     1  UNL1        0.1346
      3 C          64.6232   91.0198   13.4889 C.ar    1  UNL1        0.0034
      4 C          65.0730   91.1576   14.9131 C.ar    1  UNL1        0.0184
      5 C          65.8606   92.3616   15.3376 C.ar    1  UNL1        0.0986
      6 N          66.1985   93.4275   14.3379 N.ar    1  UNL1       -0.2427
      7 C          65.7487   93.2897   12.9136 C.ar    1  UNL1        0.0943
      8 C          64.9610   92.0858   12.4891 C.ar    1  UNL1       -0.0047
      9 C          64.5111   91.9478   11.0648 C.3     1  UNL1        0.0279
     10 C          63.7235   90.7439   10.6403 C.3     1  UNL1        0.0097
     11 C          63.3856   89.6779   11.6400 C.3     1  UNL1        0.0565
     12 H          63.8605   88.9925   14.9304 H       1  UNL1        0.2108
     13 C          62.5980   88.4740   11.2155 C.3     1  UNL1        0.1121
     14 C          61.5319   88.4450   10.1607 C.ar    1  UNL1       -0.0002
     15 C          60.9666   89.5157    9.2753 C.ar    1  UNL1       -0.0024
     16 C          59.8824   89.1822    8.2938 C.ar    1  UNL1       -0.0003
     17 C          59.3637   87.7780    8.1976 C.ar    1  UNL1        0.0000
     18 C          59.9290   86.7074    9.0830 C.ar    1  UNL1        0.0012
     19 C          61.0131   87.0408   10.0645 C.ar    1  UNL1        0.0152
     20 C          61.7586   86.2021   11.0600 C.ar    1  UNL1        0.0804
     21 C          61.8986   84.8159   11.6158 C.ar    1  UNL1        0.1177
     22 N          62.9647   84.8450   12.6706 N.ar    1  UNL1       -0.2223
     23 C          63.4835   86.2492   12.7668 C.ar    1  UNL1        0.1788
     24 N          62.7381   87.0879   11.7713 N.ar    1  UNL1       -0.3069
@<TRIPOS>BOND
     1     2     1    1
     2     2     3    1
     3     3     4   ar
     4     4     5   ar
     5     5     6   ar
     6     6     7   ar
     7     7     8   ar
     8     8     9    1
     9     9    10    1
    10    11    10    1
    11    11    13    1
    12    13    14    1
    13    14    15   ar
    14    15    16   ar
    15    16    17   ar
    16    17    18   ar
    17    18    19   ar
    18    19    20    1
    19    20    21   ar
    20    21    22   ar
    21    22    23   ar
    22    23    24   ar
    23    11     2    1
    24    13    24    1
    25     8     3   ar
    26    19    14   ar
    27    24    20   ar
    28     1    12    1
@<TRIPOS>MOLECULE
*****
 24 28 0 0 0
SMALL
GASTEIGER

@<TRIPOS>ATOM
      1 O          63.8792   88.1315   13.0392 O.3     1  UNL1       -0.3800
      2 C          63.1314   88.7508   11.8958 C.3     1  UNL1        0.1346
      3 C          62.2710   87.8970   11.0121 C.ar    1  UNL1        0.0034
      4 C          62.1585   86.4240   11.2718 C.ar    1  UNL1        0.0184
      5 C          61.2982   85.5703   10.3881 C.ar    1  UNL1        0.0986
      6 N          60.5503   86.1896    9.2448 N.ar    1  UNL1       -0.2427
      7 C          60.6628   87.6626    8.9851 C.ar    1  UNL1        0.0943
      8 C          61.5232   88.5163    9.8688 C.ar    1  UNL1       -0.0047
      9 C          61.6357   89.9894    9.6092 C.3     1  UNL1        0.0279
     10 C          62.4961   90.8431   10.4929 C.3     1  UNL1        0.0097
     11 C          63.2439   90.2239   11.6362 C.3     1  UNL1        0.0565
     12 H          63.6979   87.1789   13.0659 H       1  UNL1        0.2108
     13 C          64.1043   91.0777   12.5199 C.3     1  UNL1        0.1121
     14 C          64.0804   91.0985   14.0195 C.ar    1  UNL1       -0.0002
     15 C          63.2612   90.3395   15.0209 C.ar    1  UNL1       -0.0024
     16 C          63.4625   90.5762   16.4883 C.ar    1  UNL1       -0.0003
     17 C          64.4831   91.5718   16.9544 C.ar    1  UNL1        0.0000
     18 C          65.3022   92.3308   15.9530 C.ar    1  UNL1        0.0012
     19 C          65.1009   92.0941   14.4856 C.ar    1  UNL1        0.0152
     20 C          65.7555   92.6886   13.2739 C.ar    1  UNL1        0.0804
     21 C          66.7908   93.6714   12.8131 C.ar    1  UNL1        0.1177
     22 N          66.8147   93.6505   11.3134 N.ar    1  UNL1       -0.2223
     23 C          65.7942   92.6549   10.8474 C.ar    1  UNL1        0.1788
     24 N          65.1396   92.0604   12.0590 N.ar    1  UNL1       -0.3069
@<TRIPOS>BOND
     1     2     1    1
     2     2     3    1
     3     3     4   ar
     4     4     5   ar
     5     5     6   ar
     6     6     7   ar
     7     7     8   ar
     8     8     9    1
     9     9    10    1
    10    11    10    1
    11    11    13    1
    12    13    14    1
    13    14    15   ar
    14    15    16   ar
    15    16    17   ar
    16    17    18   ar
    17    18    19   ar
    18    19    20    1
    19    20    21   ar
    20    21    22   ar
    21    22    23   ar
    22    23    24   ar
    23    11     2    1
    24    13    24    1
    25     8     3   ar
    26    19    14   ar
    27    24    20   ar
    28     1    12    1
@<TRIPOS>MOLECULE
*****
 24 28 0 0 0
SMALL
GASTEIGER

@<TRIPOS>ATOM
      1 O          63.3953   89.0660   14.2635 O.3     1  UNL1       -0.3800
      2 C          63.8618   90.0826   13.2640 C.3     1  UNL1        0.1346
      3 C          64.7007   91.2432   13.7104 C.ar    1  UNL1        0.0034
      4 C          65.0731   91.3872   15.1562 C.ar    1  UNL1        0.0184
      5 C          65.9120   92.5478   15.6026 C.ar    1  UNL1        0.0986
      6 N          66.3784   93.5644   14.6031 N.ar    1  UNL1       -0.2427
      7 C          66.0060   93.4204   13.1572 C.ar    1  UNL1        0.0943
      8 C          65.1671   92.2598   12.7109 C.ar    1  UNL1       -0.0047
      9 C          64.7946   92.1157   11.2650 C.3     1  UNL1        0.0279
     10 C          63.9557   90.9551   10.8187 C.3     1  UNL1        0.0097
     11 C          63.4893   89.9385   11.8181 C.3     1  UNL1        0.0565
     12 H          63.7212   89.3061   15.1450 H       1  UNL1        0.2108
     13 C          62.6504   88.7779   11.3717 C.3     1  UNL1        0.1121
     14 C          62.7723   87.3638   11.8569 C.ar    1  UNL1       -0.0002
     15 C          63.6903   86.7201   12.8534 C.ar    1  UNL1       -0.0024
     16 C          63.5755   85.2523   13.1399 C.ar    1  UNL1       -0.0003
     17 C          62.5428   84.4280   12.4299 C.ar    1  UNL1        0.0000
     18 C          61.6248   85.0716   11.4334 C.ar    1  UNL1        0.0012
     19 C          61.7396   86.5395   11.1469 C.ar    1  UNL1        0.0152
     20 C          60.9794   87.4443   10.2230 C.ar    1  UNL1        0.0804
     21 C          59.8713   87.4940    9.2132 C.ar    1  UNL1        0.1177
     22 N          59.7494   88.9082    8.7281 N.ar    1  UNL1       -0.2223
     23 C          60.7821   89.7324    9.4381 C.ar    1  UNL1        0.1788
     24 N          61.5423   88.8277   10.3619 N.ar    1  UNL1       -0.3069
@<TRIPOS>BOND
     1     2     1    1
     2     2     3    1
     3     3     4   ar
     4     4     5   ar
     5     5     6   ar
     6     6     7   ar
     7     7     8   ar
     8     8     9    1
     9     9    10    1
    10    11    10    1
    11    11    13    1
    12    13    14    1
    13    14    15   ar
    14    15    16   ar
    15    16    17   ar
    16    17    18   ar
    17    18    19   ar
    18    19    20    1
    19    20    21   ar
    20    21    22   ar
    21    22    23   ar
    22    23    24   ar
    23    11     2    1
    24    13    24    1
    25     8     3   ar
    26    19    14   ar
    27    24    20   ar
    28     1    12    1
@<TRIPOS>MOLECULE
*****
 24 28 0 0 0
SMALL
GASTEIGER

@<TRIPOS>ATOM
      1 O          64.5934   86.9922   14.7503 O.3     1  UNL1       -0.3800
      2 C          63.9140   87.6271   13.5734 C.3     1  UNL1        0.1346
      3 C          64.0050   89.1097   13.3647 C.ar    1  UNL1        0.0034
      4 C          64.7756   89.9573   14.3331 C.ar    1  UNL1        0.0184
      5 C          64.8666   91.4400   14.1244 C.ar    1  UNL1        0.0986
      6 N          64.1872   92.0749   12.9475 N.ar    1  UNL1       -0.2427
      7 C          63.4167   91.2273   11.9791 C.ar    1  UNL1        0.0943
      8 C          63.3256   89.7446   12.1877 C.ar    1  UNL1       -0.0047
      9 C          62.5552   88.8969   11.2194 C.3     1  UNL1        0.0279
     10 C          62.4641   87.4143   11.4280 C.3     1  UNL1        0.0097
     11 C          63.1434   86.7793   12.6049 C.3     1  UNL1        0.0565
     12 H          65.0431   87.6756   15.2715 H       1  UNL1        0.2108
     13 C          63.0523   85.2967   12.8136 C.3     1  UNL1        0.1121
     14 C          63.2923   84.2435   11.7728 C.ar    1  UNL1       -0.0002
     15 C          63.6662   84.3321   10.3229 C.ar    1  UNL1       -0.0024
     16 C          63.8413   83.0800    9.5157 C.ar    1  UNL1       -0.0003
     17 C          63.6426   81.7393   10.1585 C.ar    1  UNL1        0.0000
     18 C          63.2687   81.6508   11.6084 C.ar    1  UNL1        0.0012
     19 C          63.0936   82.9029   12.4156 C.ar    1  UNL1        0.0152
     20 C          62.7307   83.1275   13.8536 C.ar    1  UNL1        0.0804
     21 C          62.3836   82.4377   15.1396 C.ar    1  UNL1        0.1177
     22 N          62.1436   83.4910   16.1804 N.ar    1  UNL1       -0.2223
     23 C          62.3424   84.8316   15.5376 C.ar    1  UNL1        0.1788
     24 N          62.7052   84.6070   14.0996 N.ar    1  UNL1       -0.3069
@<TRIPOS>BOND
     1     2     1    1
     2     2     3    1
     3     3     4   ar
     4     4     5   ar
     5     5     6   ar
     6     6     7   ar
     7     7     8   ar
     8     8     9    1
     9     9    10    1
    10    11    10    1
    11    11    13    1
    12    13    14    1
    13    14    15   ar
    14    15    16   ar
    15    16    17   ar
    16    17    18   ar
    17    18    19   ar
    18    19    20    1
    19    20    21   ar
    20    21    22   ar
    21    22    23   ar
    22    23    24   ar
    23    11     2    1
    24    13    24    1
    25     8     3   ar
    26    19    14   ar
    27    24    20   ar
    28     1    12    1
