@<TRIPOS>MOLECULE
*****
 12 13 0 0 0
SMALL
GASTEIGER

@<TRIPOS>ATOM
      1 C          67.3336   96.3236    9.2760 C.ar    1  UNL1        0.0414
      2 C          66.5114   96.8189   10.4286 C.ar    1  UNL1        0.1022
      3 N          66.0951   95.8718   11.5148 N.ar    1  UNL1       -0.2250
      4 C          66.5011   94.4294   11.4483 C.ar    1  UNL1        0.1638
      5 N          67.3233   93.9340   10.2957 N.ar    1  UNL1       -0.2250
      6 C          67.7396   94.8811    9.2096 C.ar    1  UNL1        0.1022
      7 C          66.0849   93.4823   12.5345 C.ar    1  UNL1        0.0549
      8 C          65.2703   92.2682   12.1994 C.ar    1  UNL1        0.0062
      9 C          64.8540   91.3211   13.2856 C.ar    1  UNL1        0.0208
     10 C          65.2524   91.5880   14.7068 C.ar    1  UNL1        0.0989
     11 N          66.0671   92.8021   15.0419 N.ar    1  UNL1       -0.2422
     12 C          66.4833   93.7492   13.9557 C.ar    1  UNL1        0.1019
@<TRIPOS>BOND
     1     1     2   ar
     2     2     3   ar
     3     3     4   ar
     4     4     7    1
     5     7     8   ar
     6     8     9   ar
     7     9    10   ar
     8    10    11   ar
     9    11    12   ar
    10     4     5   ar
    11     5     6   ar
    12     6     1   ar
    13    12     7   ar
@<TRIPOS>MOLECULE
*****
 12 13 0 0 0
SMALL
GASTEIGER

@<TRIPOS>ATOM
      1 C          63.2573   86.2300   16.9253 C.ar    1  UNL1        0.0414
      2 C          63.9715   85.9735   15.6315 C.ar    1  UNL1        0.1022
      3 N          64.2940   87.1152   14.7137 N.ar    1  UNL1       -0.2250
      4 C          63.9022   88.5135   15.0896 C.ar    1  UNL1        0.1638
      5 N          63.1880   88.7700   16.3834 N.ar    1  UNL1       -0.2250
      6 C          62.8655   87.6283   17.3013 C.ar    1  UNL1        0.1022
      7 C          64.2247   89.6552   14.1718 C.ar    1  UNL1        0.0549
      8 C          65.3128   90.6228   14.5320 C.ar    1  UNL1        0.0062
      9 C          65.6353   91.7645   13.6141 C.ar    1  UNL1        0.0208
     10 C          64.8697   91.9386   12.3360 C.ar    1  UNL1        0.0989
     11 N          63.7816   90.9710   11.9758 N.ar    1  UNL1       -0.2422
     12 C          63.4591   89.8293   12.8937 C.ar    1  UNL1        0.1019
@<TRIPOS>BOND
     1     1     2   ar
     2     2     3   ar
     3     3     4   ar
     4     4     7    1
     5     7     8   ar
     6     8     9   ar
     7     9    10   ar
     8    10    11   ar
     9    11    12   ar
    10     4     5   ar
    11     5     6   ar
    12     6     1   ar
    13    12     7   ar
@<TRIPOS>MOLECULE
*****
 12 13 0 0 0
SMALL
GASTEIGER

@<TRIPOS>ATOM
      1 C          63.3030   86.1362   16.9201 C.ar    1  UNL1        0.0414
      2 C          62.8824   87.5157   17.3325 C.ar    1  UNL1        0.1022
      3 N          63.1500   88.6829   16.4291 N.ar    1  UNL1       -0.2250
      4 C          63.8382   88.4706   15.1134 C.ar    1  UNL1        0.1638
      5 N          64.2589   87.0911   14.7010 N.ar    1  UNL1       -0.2250
      6 C          63.9913   85.9239   15.6044 C.ar    1  UNL1        0.1022
      7 C          64.1059   89.6378   14.2100 C.ar    1  UNL1        0.0549
      8 C          63.4983   89.6800   12.8393 C.ar    1  UNL1        0.0062
      9 C          63.7659   90.8472   11.9359 C.ar    1  UNL1        0.0208
     10 C          64.6411   91.9721   12.4033 C.ar    1  UNL1        0.0989
     11 N          65.2487   91.9299   13.7740 N.ar    1  UNL1       -0.2422
     12 C          64.9811   90.7627   14.6774 C.ar    1  UNL1        0.1019
@<TRIPOS>BOND
     1     1     2   ar
     2     2     3   ar
     3     3     4   ar
     4     4     7    1
     5     7     8   ar
     6     8     9   ar
     7     9    10   ar
     8    10    11   ar
     9    11    12   ar
    10     4     5   ar
    11     5     6   ar
    12     6     1   ar
    13    12     7   ar
@<TRIPOS>MOLECULE
*****
 12 13 0 0 0
SMALL
GASTEIGER

@<TRIPOS>ATOM
      1 C          60.0225   88.1066    9.5381 C.ar    1  UNL1        0.0414
      2 C          60.6242   87.1367    8.5648 C.ar    1  UNL1        0.1022
      3 N          61.4939   86.0194    9.0600 N.ar    1  UNL1       -0.2250
      4 C          61.7620   85.8720   10.5285 C.ar    1  UNL1        0.1638
      5 N          61.1603   86.8419   11.5017 N.ar    1  UNL1       -0.2250
      6 C          60.2906   87.9592   11.0065 C.ar    1  UNL1        0.1022
      7 C          62.6317   84.7547   11.0237 C.ar    1  UNL1        0.0549
      8 C          63.4661   83.9686   10.0563 C.ar    1  UNL1        0.0062
      9 C          64.3358   82.8513   10.5515 C.ar    1  UNL1        0.0208
     10 C          64.3711   82.5201   12.0140 C.ar    1  UNL1        0.0989
     11 N          63.5367   83.3062   12.9814 N.ar    1  UNL1       -0.2422
     12 C          62.6670   84.4235   12.4862 C.ar    1  UNL1        0.1019
@<TRIPOS>BOND
     1     1     2   ar
     2     2     3   ar
     3     3     4   ar
     4     4     7    1
     5     7     8   ar
     6     8     9   ar
     7     9    10   ar
     8    10    11   ar
     9    11    12   ar
    10     4     5   ar
    11     5     6   ar
    12     6     1   ar
    13    12     7   ar
@<TRIPOS>MOLECULE
*****
 12 13 0 0 0
SMALL
GASTEIGER

@<TRIPOS>ATOM
      1 C          67.9826   94.5034    8.9602 C.ar    1  UNL1        0.0414
      2 C          68.3521   93.0808    9.2591 C.ar    1  UNL1        0.1022
      3 N          67.7275   92.3728   10.4247 N.ar    1  UNL1       -0.2250
      4 C          66.7335   93.0875   11.2914 C.ar    1  UNL1        0.1638
      5 N          66.3640   94.5101   10.9924 N.ar    1  UNL1       -0.2250
      6 C          66.9886   95.2181    9.8268 C.ar    1  UNL1        0.1022
      7 C          66.1089   92.3795   12.4570 C.ar    1  UNL1        0.0549
      8 C          66.9289   92.0717   13.6746 C.ar    1  UNL1        0.0062
      9 C          66.3044   91.3637   14.8402 C.ar    1  UNL1        0.0208
     10 C          64.8597   90.9635   14.7882 C.ar    1  UNL1        0.0989
     11 N          64.0397   91.2712   13.5705 N.ar    1  UNL1       -0.2422
     12 C          64.6642   91.9792   12.4049 C.ar    1  UNL1        0.1019
@<TRIPOS>BOND
     1     1     2   ar
     2     2     3   ar
     3     3     4   ar
     4     4     7    1
     5     7     8   ar
     6     8     9   ar
     7     9    10   ar
     8    10    11   ar
     9    11    12   ar
    10     4     5   ar
    11     5     6   ar
    12     6     1   ar
    13    12     7   ar
@<TRIPOS>MOLECULE
*****
 12 13 0 0 0
SMALL
GASTEIGER

@<TRIPOS>ATOM
      1 C          62.7087   80.4256   12.2384 C.ar    1  UNL1        0.0414
      2 C          63.0559   81.7043   11.5352 C.ar    1  UNL1        0.1022
      3 N          63.2326   82.9689   12.3222 N.ar    1  UNL1       -0.2250
      4 C          63.0622   82.9550   13.8124 C.ar    1  UNL1        0.1638
      5 N          62.7150   81.6764   14.5156 N.ar    1  UNL1       -0.2250
      6 C          62.5383   80.4117   13.7286 C.ar    1  UNL1        0.1022
      7 C          63.2389   84.2197   14.5994 C.ar    1  UNL1        0.0549
      8 C          64.2758   85.2216   14.1859 C.ar    1  UNL1        0.0062
      9 C          64.4525   86.4863   14.9729 C.ar    1  UNL1        0.0208
     10 C          63.5924   86.7490   16.1734 C.ar    1  UNL1        0.0989
     11 N          62.5556   85.7471   16.5868 N.ar    1  UNL1       -0.2422
     12 C          62.3788   84.4824   15.7999 C.ar    1  UNL1        0.1019
@<TRIPOS>BOND
     1     1     2   ar
     2     2     3   ar
     3     3     4   ar
     4     4     7    1
     5     7     8   ar
     6     8     9   ar
     7     9    10   ar
     8    10    11   ar
     9    11    12   ar
    10     4     5   ar
    11     5     6   ar
    12     6     1   ar
    13    12     7   ar
@<TRIPOS>MOLECULE
*****
 12 13 0 0 0
SMALL
GASTEIGER

@<TRIPOS>ATOM
      1 C          64.5969   90.7269   14.4382 C.ar    1  UNL1        0.0414
      2 C          63.8686   90.9950   13.1546 C.ar    1  UNL1        0.1022
      3 N          64.5269   91.7984   12.0724 N.ar    1  UNL1       -0.2250
      4 C          65.9136   92.3337   12.2739 C.ar    1  UNL1        0.1638
      5 N          66.6419   92.0656   13.5575 N.ar    1  UNL1       -0.2250
      6 C          65.9835   91.2622   14.6396 C.ar    1  UNL1        0.1022
      7 C          66.5719   93.1372   11.1917 C.ar    1  UNL1        0.0549
      8 C          67.4718   92.4629   10.1990 C.ar    1  UNL1        0.0062
      9 C          68.1302   93.2663    9.1169 C.ar    1  UNL1        0.0208
     10 C          67.8886   94.7440    9.0274 C.ar    1  UNL1        0.0989
     11 N          66.9887   95.4183   10.0201 N.ar    1  UNL1       -0.2422
     12 C          66.3304   94.6148   11.1023 C.ar    1  UNL1        0.1019
@<TRIPOS>BOND
     1     1     2   ar
     2     2     3   ar
     3     3     4   ar
     4     4     7    1
     5     7     8   ar
     6     8     9   ar
     7     9    10   ar
     8    10    11   ar
     9    11    12   ar
    10     4     5   ar
    11     5     6   ar
    12     6     1   ar
    13    12     7   ar
@<TRIPOS>MOLECULE
*****
 12 13 0 0 0
SMALL
GASTEIGER

@<TRIPOS>ATOM
      1 C          61.7881   87.1516    9.3990 C.ar    1  UNL1        0.0414
      2 C          61.3259   87.1564   10.8260 C.ar    1  UNL1        0.1022
      3 N          61.6546   86.0013   11.7247 N.ar    1  UNL1       -0.2250
      4 C          62.4456   84.8415   11.1965 C.ar    1  UNL1        0.1638
      5 N          62.9079   84.8367    9.7696 N.ar    1  UNL1       -0.2250
      6 C          62.5791   85.9918    8.8708 C.ar    1  UNL1        0.1022
      7 C          62.7743   83.6864   12.0953 C.ar    1  UNL1        0.0549
      8 C          62.7349   82.2854   11.5608 C.ar    1  UNL1        0.0062
      9 C          63.0636   81.1303   12.4596 C.ar    1  UNL1        0.0208
     10 C          63.4318   81.3763   13.8927 C.ar    1  UNL1        0.0989
     11 N          63.4712   82.7772   14.4271 N.ar    1  UNL1       -0.2422
     12 C          63.1425   83.9323   13.5284 C.ar    1  UNL1        0.1019
@<TRIPOS>BOND
     1     1     2   ar
     2     2     3   ar
     3     3     4   ar
     4     4     7    1
     5     7     8   ar
     6     8     9   ar
     7     9    10   ar
     8    10    11   ar
     9    11    12   ar
    10     4     5   ar
    11     5     6   ar
    12     6     1   ar
    13    12     7   ar
@<TRIPOS>MOLECULE
*****
 12 13 0 0 0
SMALL
GASTEIGER

@<TRIPOS>ATOM
      1 C          63.8343   83.4176   14.9740 C.ar    1  UNL1        0.0414
      2 C          63.9493   84.8954   14.7440 C.ar    1  UNL1        0.1022
      3 N          63.4760   85.4924   13.4518 N.ar    1  UNL1       -0.2250
      4 C          62.8877   84.6116   12.3898 C.ar    1  UNL1        0.1638
      5 N          62.7727   83.1338   12.6198 N.ar    1  UNL1       -0.2250
      6 C          63.2460   82.5369   13.9120 C.ar    1  UNL1        0.1022
      7 C          62.4144   85.2085   11.0976 C.ar    1  UNL1        0.0549
      8 C          63.0817   84.8314    9.8083 C.ar    1  UNL1        0.0062
      9 C          62.6084   85.4284    8.5162 C.ar    1  UNL1        0.0208
     10 C          61.4678   86.4025    8.5134 C.ar    1  UNL1        0.0989
     11 N          60.8005   86.7796    9.8027 N.ar    1  UNL1       -0.2422
     12 C          61.2738   86.1826   11.0948 C.ar    1  UNL1        0.1019
@<TRIPOS>BOND
     1     1     2   ar
     2     2     3   ar
     3     3     4   ar
     4     4     7    1
     5     7     8   ar
     6     8     9   ar
     7     9    10   ar
     8    10    11   ar
     9    11    12   ar
    10     4     5   ar
    11     5     6   ar
    12     6     1   ar
    13    12     7   ar
