@<TRIPOS>MOLECULE
*****
 32 35 0 0 0
SMALL
GASTEIGER

@<TRIPOS>ATOM
      1 C          64.1253   90.4287   15.5864 C.2     1  UNL1        0.2525
      2 O          63.4805   91.1061   16.7591 O.2     1  UNL1       -0.2698
      3 N          63.8952   88.9662   15.3454 N.am    1  UNL1       -0.2660
      4 C          64.4698   88.1568   14.2207 C.3     1  UNL1        0.1236
      5 C          63.9797   86.7467   14.3670 C.ar    1  UNL1        0.0338
      6 C          64.0320   85.3750   13.7623 C.ar    1  UNL1        0.0991
      7 N          63.1868   84.4650   14.6036 N.ar    1  UNL1       -0.2271
      8 N          62.6122   85.2744   15.7283 N.ar    1  UNL1       -0.1680
      9 C          63.1023   86.6845   15.5820 C.ar    1  UNL1        0.0981
     10 C          63.0500   88.0563   16.1867 C.3     1  UNL1        0.1414
     11 C          62.9566   83.0026   14.3626 C.ar    1  UNL1        0.1042
     12 C          64.1154   82.1021   14.0520 C.ar    1  UNL1        0.1181
     13 N          63.8853   80.6396   13.8110 N.ar    1  UNL1       -0.2384
     14 C          62.4963   80.0775   13.8806 C.ar    1  UNL1        0.1285
     15 C          61.3375   80.9780   14.1912 C.ar    1  UNL1        0.1607
     16 F          59.9485   80.4158   14.2608 F       1  UNL1       -0.2025
     17 C          61.5677   82.4404   14.4322 C.ar    1  UNL1        0.0520
     18 C          64.4969   91.5924   13.2934 C.ar    1  UNL1        0.1431
     19 C          65.3719   92.3775   12.3618 C.ar    1  UNL1        0.0377
     20 C          66.7503   92.7840   12.7914 C.ar    1  UNL1        0.0134
     21 C          67.2538   92.4054   14.1527 C.ar    1  UNL1        0.0688
     22 C          66.3787   91.6203   15.0844 C.ar    1  UNL1        0.0178
     23 C          65.0003   91.2138   14.6547 C.ar    1  UNL1        0.0881
     24 C          68.6323   92.8119   14.5824 C.1     1  UNL1        0.1004
     25 N          70.0107   93.2185   15.0120 N.1     1  UNL1       -0.1908
     26 O          63.1184   91.1859   12.8637 O.3     1  UNL1       -0.4702
     27 C          63.2456   91.3604   10.2746 C.3     1  UNL1        0.0566
     28 C          62.9035   90.5794   11.5087 C.3     1  UNL1        0.2599
     29 C          62.3463   89.1920   11.3879 C.3     1  UNL1        0.4340
     30 F          61.7891   87.8046   11.2671 F       1  UNL1       -0.1664
     31 F          61.7941   89.2926   12.7790 F       1  UNL1       -0.1664
     32 F          62.8984   89.0914    9.9968 F       1  UNL1       -0.1664
@<TRIPOS>BOND
     1    28    27    1
     2    28    26    1
     3    26    18    1
     4    18    19   ar
     5    19    20   ar
     6    20    21   ar
     7    21    24    1
     8    24    25    3
     9    21    22   ar
    10    22    23   ar
    11    23     1    1
    12     1     2    2
    13     1     3   am
    14     3     4    1
    15     4     5    1
    16     5     6   ar
    17     6     7   ar
    18     7    11    1
    19    11    12   ar
    20    12    13   ar
    21    13    14   ar
    22    14    15   ar
    23    15    16    1
    24    15    17   ar
    25     7     8   ar
    26     8     9   ar
    27     9    10    1
    28    28    29    1
    29    29    30    1
    30    29    31    1
    31    29    32    1
    32    23    18   ar
    33    10     3    1
    34     9     5   ar
    35    17    11   ar
@<TRIPOS>MOLECULE
*****
 32 35 0 0 0
SMALL
GASTEIGER

@<TRIPOS>ATOM
      1 C          63.5309   90.7286   11.7594 C.2     1  UNL1        0.2525
      2 O          62.8010   91.3949   10.6309 O.2     1  UNL1       -0.2698
      3 N          63.3437   89.2618   12.0114 N.am    1  UNL1       -0.2660
      4 C          64.0029   88.4624   13.0960 C.3     1  UNL1        0.1236
      5 C          63.5310   87.0435   12.9779 C.ar    1  UNL1        0.0338
      6 C          63.6468   85.6724   13.5753 C.ar    1  UNL1        0.0991
      7 N          62.7675   84.7475   12.7869 N.ar    1  UNL1       -0.2271
      8 N          62.1083   85.5470   11.7023 N.ar    1  UNL1       -0.1680
      9 C          62.5802   86.9660   11.8204 C.ar    1  UNL1        0.0981
     10 C          62.4644   88.3370   11.2230 C.3     1  UNL1        0.1414
     11 C          62.5803   83.2808   13.0389 C.ar    1  UNL1        0.1042
     12 C          62.1867   82.7985   14.4036 C.ar    1  UNL1        0.1181
     13 N          61.9995   81.3317   14.6556 N.ar    1  UNL1       -0.2384
     14 C          62.2059   80.3472   13.5429 C.ar    1  UNL1        0.1285
     15 C          62.5995   80.8295   12.1781 C.ar    1  UNL1        0.1607
     16 F          62.8059   79.8450   11.0654 F       1  UNL1       -0.2025
     17 C          62.7867   82.2962   11.9261 C.ar    1  UNL1        0.0520
     18 C          65.5544   92.3365   12.0244 C.ar    1  UNL1        0.1431
     19 C          66.4714   93.1370   12.9009 C.ar    1  UNL1        0.0377
     20 C          66.2819   93.1302   14.3888 C.ar    1  UNL1        0.0134
     21 C          65.1755   92.3229   15.0004 C.ar    1  UNL1        0.0688
     22 C          64.2585   91.5224   14.1238 C.ar    1  UNL1        0.0178
     23 C          64.4479   91.5292   12.6358 C.ar    1  UNL1        0.0881
     24 C          64.9860   92.3161   16.4883 C.1     1  UNL1        0.1004
     25 N          64.7966   92.3093   17.9763 N.1     1  UNL1       -0.1908
     26 O          65.7438   92.3433   10.5364 O.3     1  UNL1       -0.4702
     27 C          66.4857   94.7440    9.8759 C.3     1  UNL1        0.0566
     28 C          66.7471   93.2675    9.9123 C.3     1  UNL1        0.2599
     29 C          68.0117   92.7149    9.3246 C.3     1  UNL1        0.4340
     30 F          69.2763   92.1624    8.7368 F       1  UNL1       -0.1664
     31 F          67.9725   93.7644    8.2535 F       1  UNL1       -0.1664
     32 F          68.0510   91.6654   10.3956 F       1  UNL1       -0.1664
@<TRIPOS>BOND
     1    28    27    1
     2    28    26    1
     3    26    18    1
     4    18    19   ar
     5    19    20   ar
     6    20    21   ar
     7    21    24    1
     8    24    25    3
     9    21    22   ar
    10    22    23   ar
    11    23     1    1
    12     1     2    2
    13     1     3   am
    14     3     4    1
    15     4     5    1
    16     5     6   ar
    17     6     7   ar
    18     7    11    1
    19    11    12   ar
    20    12    13   ar
    21    13    14   ar
    22    14    15   ar
    23    15    16    1
    24    15    17   ar
    25     7     8   ar
    26     8     9   ar
    27     9    10    1
    28    28    29    1
    29    29    30    1
    30    29    31    1
    31    29    32    1
    32    23    18   ar
    33    10     3    1
    34     9     5   ar
    35    17    11   ar
@<TRIPOS>MOLECULE
*****
 32 35 0 0 0
SMALL
GASTEIGER

@<TRIPOS>ATOM
      1 C          62.7848   90.2971   11.1796 C.2     1  UNL1        0.2525
      2 O          61.7828   90.8998   10.2401 O.2     1  UNL1       -0.2698
      3 N          62.7310   88.8314   11.4941 N.am    1  UNL1       -0.2660
      4 C          63.6606   88.0914   12.4097 C.3     1  UNL1        0.1236
      5 C          63.2423   86.6511   12.4296 C.ar    1  UNL1        0.0338
      6 C          63.5583   85.3035   13.0078 C.ar    1  UNL1        0.0991
      7 N          62.5656   84.3204   12.4618 N.ar    1  UNL1       -0.2271
      8 N          61.6361   85.0605   11.5461 N.ar    1  UNL1       -0.1680
      9 C          62.0543   86.5008   11.5262 C.ar    1  UNL1        0.0981
     10 C          61.7383   87.8483   10.9480 C.3     1  UNL1        0.1414
     11 C          62.5119   82.8548   12.7762 C.ar    1  UNL1        0.1042
     12 C          62.2618   82.3982   14.1829 C.ar    1  UNL1        0.1181
     13 N          62.2080   80.9325   14.4974 N.ar    1  UNL1       -0.2384
     14 C          62.4044   79.9234   13.4050 C.ar    1  UNL1        0.1285
     15 C          62.6545   80.3800   11.9982 C.ar    1  UNL1        0.1607
     16 F          62.8509   79.3709   10.9059 F       1  UNL1       -0.2025
     17 C          62.7083   81.8456   11.6838 C.ar    1  UNL1        0.0520
     18 C          63.9720   91.2215   13.2977 C.ar    1  UNL1        0.1431
     19 C          65.0277   92.0845   13.9227 C.ar    1  UNL1        0.0377
     20 C          65.9520   92.8860   13.0549 C.ar    1  UNL1        0.0134
     21 C          65.8205   92.8246   11.5619 C.ar    1  UNL1        0.0688
     22 C          64.7647   91.9616   10.9369 C.ar    1  UNL1        0.0178
     23 C          63.8405   91.1600   11.8047 C.ar    1  UNL1        0.0881
     24 C          66.7448   93.6262   10.6940 C.1     1  UNL1        0.1004
     25 N          67.6691   94.4277    9.8261 N.1     1  UNL1       -0.1908
     26 O          63.0477   90.4200   14.1656 O.3     1  UNL1       -0.4702
     27 C          63.7411   91.1264   16.5677 C.3     1  UNL1        0.0566
     28 C          63.4595   90.0515   15.5601 C.3     1  UNL1        0.2599
     29 C          63.5895   88.6082   15.9470 C.3     1  UNL1        0.4340
     30 F          63.7195   87.1648   16.3340 F       1  UNL1       -0.1664
     31 F          62.3858   88.7371   16.8327 F       1  UNL1       -0.1664
     32 F          64.7933   88.4791   15.0614 F       1  UNL1       -0.1664
@<TRIPOS>BOND
     1    28    27    1
     2    28    26    1
     3    26    18    1
     4    18    19   ar
     5    19    20   ar
     6    20    21   ar
     7    21    24    1
     8    24    25    3
     9    21    22   ar
    10    22    23   ar
    11    23     1    1
    12     1     2    2
    13     1     3   am
    14     3     4    1
    15     4     5    1
    16     5     6   ar
    17     6     7   ar
    18     7    11    1
    19    11    12   ar
    20    12    13   ar
    21    13    14   ar
    22    14    15   ar
    23    15    16    1
    24    15    17   ar
    25     7     8   ar
    26     8     9   ar
    27     9    10    1
    28    28    29    1
    29    29    30    1
    30    29    31    1
    31    29    32    1
    32    23    18   ar
    33    10     3    1
    34     9     5   ar
    35    17    11   ar
@<TRIPOS>MOLECULE
*****
 32 35 0 0 0
SMALL
GASTEIGER

@<TRIPOS>ATOM
      1 C          63.8516   88.8688   15.5592 C.2     1  UNL1        0.2525
      2 O          63.5267   89.1867   16.9887 O.2     1  UNL1       -0.2698
      3 N          63.6758   87.4714   15.0430 N.am    1  UNL1       -0.2660
      4 C          63.9581   87.0058   13.6454 C.3     1  UNL1        0.1236
      5 C          63.6436   85.5409   13.5725 C.ar    1  UNL1        0.0338
      6 C          63.6237   84.3478   12.6636 C.ar    1  UNL1        0.0991
      7 N          63.1346   83.1707   13.4544 N.ar    1  UNL1       -0.2271
      8 N          62.8523   83.6364   14.8522 N.ar    1  UNL1       -0.1680
      9 C          63.1669   85.1013   14.9251 C.ar    1  UNL1        0.0981
     10 C          63.1868   86.2944   15.8339 C.3     1  UNL1        0.1414
     11 C          62.9588   81.7734   12.9383 C.ar    1  UNL1        0.1042
     12 C          62.6519   80.6554   13.8900 C.ar    1  UNL1        0.1181
     13 N          62.4761   79.2580   13.3739 N.ar    1  UNL1       -0.2384
     14 C          62.6072   78.9786   11.9060 C.ar    1  UNL1        0.1285
     15 C          62.9141   80.0967   10.9542 C.ar    1  UNL1        0.1607
     16 F          63.0452   79.8173    9.4862 F       1  UNL1       -0.2025
     17 C          63.0899   81.4940   11.4703 C.ar    1  UNL1        0.0520
     18 C          63.5015   90.4189   13.5038 C.ar    1  UNL1        0.1431
     19 C          64.0023   91.4984   12.5906 C.ar    1  UNL1        0.0377
     20 C          65.3540   92.1072   12.8195 C.ar    1  UNL1        0.0134
     21 C          66.2049   91.6365   13.9617 C.ar    1  UNL1        0.0688
     22 C          65.7040   90.5570   14.8749 C.ar    1  UNL1        0.0178
     23 C          64.3524   89.9482   14.6460 C.ar    1  UNL1        0.0881
     24 C          67.5565   92.2453   14.1905 C.1     1  UNL1        0.1004
     25 N          68.9081   92.8541   14.4194 N.1     1  UNL1       -0.1908
     26 O          62.1499   89.8101   13.2749 O.3     1  UNL1       -0.4702
     27 C          62.4201   88.7446   10.9208 C.3     1  UNL1        0.0566
     28 C          61.6471   89.6041   11.8768 C.3     1  UNL1        0.2599
     29 C          60.3714   90.2575   11.4347 C.3     1  UNL1        0.4340
     30 F          59.0957   90.9110   10.9925 F       1  UNL1       -0.1664
     31 F          61.0494   90.7359   10.1850 F       1  UNL1       -0.1664
     32 F          59.6933   89.7792   12.6842 F       1  UNL1       -0.1664
@<TRIPOS>BOND
     1    28    27    1
     2    28    26    1
     3    26    18    1
     4    18    19   ar
     5    19    20   ar
     6    20    21   ar
     7    21    24    1
     8    24    25    3
     9    21    22   ar
    10    22    23   ar
    11    23     1    1
    12     1     2    2
    13     1     3   am
    14     3     4    1
    15     4     5    1
    16     5     6   ar
    17     6     7   ar
    18     7    11    1
    19    11    12   ar
    20    12    13   ar
    21    13    14   ar
    22    14    15   ar
    23    15    16    1
    24    15    17   ar
    25     7     8   ar
    26     8     9   ar
    27     9    10    1
    28    28    29    1
    29    29    30    1
    30    29    31    1
    31    29    32    1
    32    23    18   ar
    33    10     3    1
    34     9     5   ar
    35    17    11   ar
@<TRIPOS>MOLECULE
*****
 32 35 0 0 0
SMALL
GASTEIGER

@<TRIPOS>ATOM
      1 C          60.1321   88.7543   11.5128 C.2     1  UNL1        0.2525
      2 O          58.9012   88.5713   12.3503 O.2     1  UNL1       -0.2698
      3 N          61.3542   89.3913   12.1050 N.am    1  UNL1       -0.2660
      4 C          62.6516   89.6391   11.3941 C.3     1  UNL1        0.1236
      5 C          63.5927   90.2932   12.3618 C.ar    1  UNL1        0.0338
      6 C          64.9762   90.8506   12.5205 C.ar    1  UNL1        0.0991
      7 N          65.1156   91.3516   13.9275 N.ar    1  UNL1       -0.2271
      8 N          63.8182   91.1037   14.6384 N.ar    1  UNL1       -0.1680
      9 C          62.8770   90.4496   13.6707 C.ar    1  UNL1        0.0981
     10 C          61.4935   89.8921   13.5120 C.3     1  UNL1        0.1414
     11 C          66.3377   91.9885   14.5196 C.ar    1  UNL1        0.1042
     12 C          66.2247   92.8087   15.7704 C.ar    1  UNL1        0.1181
     13 N          67.4469   93.4457   16.3626 N.ar    1  UNL1       -0.2384
     14 C          68.7820   93.2624   15.7040 C.ar    1  UNL1        0.1285
     15 C          68.8950   92.4421   14.4531 C.ar    1  UNL1        0.1607
     16 F          70.2302   92.2588   13.7945 F       1  UNL1       -0.2025
     17 C          67.6729   91.8052   13.8610 C.ar    1  UNL1        0.0520
     18 C          60.5336   86.8927    9.7455 C.ar    1  UNL1        0.1431
     19 C          60.5423   86.4389    8.3159 C.ar    1  UNL1        0.0377
     20 C          60.1581   87.3927    7.2238 C.ar    1  UNL1        0.0134
     21 C          59.7653   88.8005    7.5614 C.ar    1  UNL1        0.0688
     22 C          59.7566   89.2543    8.9911 C.ar    1  UNL1        0.0178
     23 C          60.1408   88.3004   10.0832 C.ar    1  UNL1        0.0881
     24 C          59.3811   89.7543    6.4693 C.1     1  UNL1        0.1004
     25 N          58.9970   90.7081    5.3773 N.1     1  UNL1       -0.1908
     26 O          60.9178   85.9388   10.8376 O.3     1  UNL1       -0.4702
     27 C          62.9981   84.9894    9.6044 C.3     1  UNL1        0.0566
     28 C          62.3031   85.3653   10.8794 C.3     1  UNL1        0.2599
     29 C          62.9934   85.1676   12.1964 C.3     1  UNL1        0.4340
     30 F          63.6837   84.9698   13.5133 F       1  UNL1       -0.1664
     31 F          62.8024   83.6848   12.0739 F       1  UNL1       -0.1664
     32 F          63.1845   86.6503   12.3189 F       1  UNL1       -0.1664
@<TRIPOS>BOND
     1    28    27    1
     2    28    26    1
     3    26    18    1
     4    18    19   ar
     5    19    20   ar
     6    20    21   ar
     7    21    24    1
     8    24    25    3
     9    21    22   ar
    10    22    23   ar
    11    23     1    1
    12     1     2    2
    13     1     3   am
    14     3     4    1
    15     4     5    1
    16     5     6   ar
    17     6     7   ar
    18     7    11    1
    19    11    12   ar
    20    12    13   ar
    21    13    14   ar
    22    14    15   ar
    23    15    16    1
    24    15    17   ar
    25     7     8   ar
    26     8     9   ar
    27     9    10    1
    28    28    29    1
    29    29    30    1
    30    29    31    1
    31    29    32    1
    32    23    18   ar
    33    10     3    1
    34     9     5   ar
    35    17    11   ar
@<TRIPOS>MOLECULE
*****
 32 35 0 0 0
SMALL
GASTEIGER

@<TRIPOS>ATOM
      1 C          64.3940   89.9775   14.0950 C.2     1  UNL1        0.2525
      2 O          64.7807   90.6583   15.3745 O.2     1  UNL1       -0.2698
      3 N          64.0929   88.5080   14.0886 N.am    1  UNL1       -0.2660
      4 C          63.6954   87.6947   12.8925 C.3     1  UNL1        0.1236
      5 C          63.4932   86.2780   13.3419 C.ar    1  UNL1        0.0338
      6 C          63.1226   84.8997   12.8804 C.ar    1  UNL1        0.0991
      7 N          63.1661   83.9855   14.0689 N.ar    1  UNL1       -0.2271
      8 N          63.5636   84.7989   15.2649 N.ar    1  UNL1       -0.1680
      9 C          63.7658   86.2157   14.8156 C.ar    1  UNL1        0.0981
     10 C          64.1364   87.5939   15.2771 C.3     1  UNL1        0.1414
     11 C          62.8649   82.5162   14.0625 C.ar    1  UNL1        0.1042
     12 C          63.9791   81.5228   13.9146 C.ar    1  UNL1        0.1181
     13 N          63.6781   80.0533   13.9082 N.ar    1  UNL1       -0.2384
     14 C          62.2627   79.5772   14.0497 C.ar    1  UNL1        0.1285
     15 C          61.1484   80.5706   14.1975 C.ar    1  UNL1        0.1607
     16 F          59.7330   80.0944   14.3390 F       1  UNL1       -0.2025
     17 C          61.4495   82.0399   14.2039 C.ar    1  UNL1        0.0520
     18 C          63.1291   90.5948   11.9111 C.ar    1  UNL1        0.1431
     19 C          63.0437   91.3835   10.6381 C.ar    1  UNL1        0.0377
     20 C          64.1377   92.3436   10.2758 C.ar    1  UNL1        0.0134
     21 C          65.3172   92.5151   11.1866 C.ar    1  UNL1        0.0688
     22 C          65.4026   91.7263   12.4596 C.ar    1  UNL1        0.0178
     23 C          64.3086   90.7662   12.8219 C.ar    1  UNL1        0.0881
     24 C          66.4112   93.4752   10.8243 C.1     1  UNL1        0.1004
     25 N          67.5052   94.4353   10.4620 N.1     1  UNL1       -0.1908
     26 O          62.0351   89.6346   12.2734 O.3     1  UNL1       -0.4702
     27 C          60.9420   88.3536   10.2951 C.3     1  UNL1        0.0566
     28 C          60.8792   89.4278   11.3401 C.3     1  UNL1        0.2599
     29 C          59.6606   90.2952   11.4518 C.3     1  UNL1        0.4340
     30 F          58.4420   91.1627   11.5635 F       1  UNL1       -0.1664
     31 F          59.8565   90.7527   10.0367 F       1  UNL1       -0.1664
     32 F          59.4646   89.8378   12.8669 F       1  UNL1       -0.1664
@<TRIPOS>BOND
     1    28    27    1
     2    28    26    1
     3    26    18    1
     4    18    19   ar
     5    19    20   ar
     6    20    21   ar
     7    21    24    1
     8    24    25    3
     9    21    22   ar
    10    22    23   ar
    11    23     1    1
    12     1     2    2
    13     1     3   am
    14     3     4    1
    15     4     5    1
    16     5     6   ar
    17     6     7   ar
    18     7    11    1
    19    11    12   ar
    20    12    13   ar
    21    13    14   ar
    22    14    15   ar
    23    15    16    1
    24    15    17   ar
    25     7     8   ar
    26     8     9   ar
    27     9    10    1
    28    28    29    1
    29    29    30    1
    30    29    31    1
    31    29    32    1
    32    23    18   ar
    33    10     3    1
    34     9     5   ar
    35    17    11   ar
@<TRIPOS>MOLECULE
*****
 32 35 0 0 0
SMALL
GASTEIGER

@<TRIPOS>ATOM
      1 C          62.4556   85.4876   11.3997 C.2     1  UNL1        0.2525
      2 O          62.4089   83.9990   11.2212 O.2     1  UNL1       -0.2698
      3 N          61.7688   86.3834   10.4118 N.am    1  UNL1       -0.2660
      4 C          61.7296   87.8822   10.4594 C.3     1  UNL1        0.1236
      5 C          60.9372   88.3627    9.2799 C.ar    1  UNL1        0.0338
      6 C          60.4232   89.5860    8.5803 C.ar    1  UNL1        0.0991
      7 N          59.6550   89.1404    7.3715 N.ar    1  UNL1       -0.2271
      8 N          59.6942   87.6416    7.3240 N.ar    1  UNL1       -0.1680
      9 C          60.4867   87.1610    8.5034 C.ar    1  UNL1        0.0981
     10 C          61.0006   85.9377    9.2030 C.3     1  UNL1        0.1414
     11 C          58.9682   90.0361    6.3837 C.ar    1  UNL1        0.1042
     12 C          57.4746   90.0004    6.2509 C.ar    1  UNL1        0.1181
     13 N          56.7877   90.8962    5.2631 N.ar    1  UNL1       -0.2384
     14 C          57.5945   91.8276    4.4079 C.ar    1  UNL1        0.1285
     15 C          59.0883   91.8633    4.5406 C.ar    1  UNL1        0.1607
     16 F          59.8952   92.7949    3.6854 F       1  UNL1       -0.2025
     17 C          59.7751   90.9676    5.5284 C.ar    1  UNL1        0.0520
     18 C          63.8747   85.1846   13.5549 C.ar    1  UNL1        0.1431
     19 C          64.6082   85.7775   14.7212 C.ar    1  UNL1        0.0377
     20 C          64.6564   87.2662   14.8988 C.ar    1  UNL1        0.0134
     21 C          63.9711   88.1620   13.9100 C.ar    1  UNL1        0.0688
     22 C          63.2375   87.5691   12.7436 C.ar    1  UNL1        0.0178
     23 C          63.1892   86.0804   12.5660 C.ar    1  UNL1        0.0881
     24 C          64.0193   89.6507   14.0875 C.1     1  UNL1        0.1004
     25 N          64.0675   91.1394   14.2651 N.1     1  UNL1       -0.1908
     26 O          63.8264   83.6960   13.3773 O.3     1  UNL1       -0.4702
     27 C          62.1033   83.5035   15.3122 C.3     1  UNL1        0.0566
     28 C          62.8594   82.8760   14.1788 C.3     1  UNL1        0.2599
     29 C          62.6484   81.4285   13.8468 C.3     1  UNL1        0.4340
     30 F          62.4374   79.9810   13.5149 F       1  UNL1       -0.1664
     31 F          61.3194   81.4628   14.5417 F       1  UNL1       -0.1664
     32 F          63.9773   81.3941   13.1520 F       1  UNL1       -0.1664
@<TRIPOS>BOND
     1    28    27    1
     2    28    26    1
     3    26    18    1
     4    18    19   ar
     5    19    20   ar
     6    20    21   ar
     7    21    24    1
     8    24    25    3
     9    21    22   ar
    10    22    23   ar
    11    23     1    1
    12     1     2    2
    13     1     3   am
    14     3     4    1
    15     4     5    1
    16     5     6   ar
    17     6     7   ar
    18     7    11    1
    19    11    12   ar
    20    12    13   ar
    21    13    14   ar
    22    14    15   ar
    23    15    16    1
    24    15    17   ar
    25     7     8   ar
    26     8     9   ar
    27     9    10    1
    28    28    29    1
    29    29    30    1
    30    29    31    1
    31    29    32    1
    32    23    18   ar
    33    10     3    1
    34     9     5   ar
    35    17    11   ar
@<TRIPOS>MOLECULE
*****
 32 35 0 0 0
SMALL
GASTEIGER

@<TRIPOS>ATOM
      1 C          64.2407   90.0749   14.9993 C.2     1  UNL1        0.2525
      2 O          64.2339   90.7075   16.3593 O.2     1  UNL1       -0.2698
      3 N          63.9818   88.6045   14.8547 N.am    1  UNL1       -0.2660
      4 C          63.9569   87.8362   13.5666 C.3     1  UNL1        0.1236
      5 C          63.6620   86.4011   13.8887 C.ar    1  UNL1        0.0338
      6 C          63.4643   85.0393   13.2917 C.ar    1  UNL1        0.0991
      7 N          63.1848   84.0791   14.4097 N.ar    1  UNL1       -0.2271
      8 N          63.2096   84.8476   15.6977 N.ar    1  UNL1       -0.1680
      9 C          63.5046   86.2826   15.3757 C.ar    1  UNL1        0.0981
     10 C          63.7022   87.6444   15.9727 C.3     1  UNL1        0.1414
     11 C          62.9258   82.6088   14.2651 C.ar    1  UNL1        0.1042
     12 C          64.0728   81.6597   14.0823 C.ar    1  UNL1        0.1181
     13 N          63.8139   80.1892   13.9377 N.ar    1  UNL1       -0.2384
     14 C          62.4079   79.6680   13.9760 C.ar    1  UNL1        0.1285
     15 C          61.2608   80.6172   14.1588 C.ar    1  UNL1        0.1607
     16 F          59.8548   80.0959   14.1971 F       1  UNL1       -0.2025
     17 C          61.5198   82.0875   14.3034 C.ar    1  UNL1        0.0520
     18 C          65.5810   91.9591   13.8143 C.ar    1  UNL1        0.1431
     19 C          65.8467   92.7968   12.5988 C.ar    1  UNL1        0.0377
     20 C          65.0380   92.5884   11.3527 C.ar    1  UNL1        0.0134
     21 C          63.9635   91.5422   11.3222 C.ar    1  UNL1        0.0688
     22 C          63.6978   90.7043   12.5378 C.ar    1  UNL1        0.0178
     23 C          64.5065   90.9128   13.7838 C.ar    1  UNL1        0.0881
     24 C          63.1549   91.3337   10.0762 C.1     1  UNL1        0.1004
     25 N          62.3462   91.1253    8.8301 N.1     1  UNL1       -0.1908
     26 O          66.3896   92.1675   15.0603 O.3     1  UNL1       -0.4702
     27 C          68.7430   91.6575   14.0847 C.3     1  UNL1        0.0566
     28 C          67.8518   92.4872   14.9608 C.3     1  UNL1        0.2599
     29 C          68.4227   93.6365   15.7374 C.3     1  UNL1        0.4340
     30 F          68.9936   94.7857   16.5140 F       1  UNL1       -0.1664
     31 F          69.3267   92.6912   16.4718 F       1  UNL1       -0.1664
     32 F          67.5188   94.5818   15.0030 F       1  UNL1       -0.1664
@<TRIPOS>BOND
     1    28    27    1
     2    28    26    1
     3    26    18    1
     4    18    19   ar
     5    19    20   ar
     6    20    21   ar
     7    21    24    1
     8    24    25    3
     9    21    22   ar
    10    22    23   ar
    11    23     1    1
    12     1     2    2
    13     1     3   am
    14     3     4    1
    15     4     5    1
    16     5     6   ar
    17     6     7   ar
    18     7    11    1
    19    11    12   ar
    20    12    13   ar
    21    13    14   ar
    22    14    15   ar
    23    15    16    1
    24    15    17   ar
    25     7     8   ar
    26     8     9   ar
    27     9    10    1
    28    28    29    1
    29    29    30    1
    30    29    31    1
    31    29    32    1
    32    23    18   ar
    33    10     3    1
    34     9     5   ar
    35    17    11   ar
@<TRIPOS>MOLECULE
*****
 32 35 0 0 0
SMALL
GASTEIGER

@<TRIPOS>ATOM
      1 C          60.6457   95.6263   -0.1039 C.2     1  UNL1        0.2525
      2 O          61.6410   96.7030   -0.4205 O.2     1  UNL1       -0.2698
      3 N          59.2671   95.6829   -0.6923 N.am    1  UNL1       -0.2660
      4 C          58.1709   94.6839   -0.4675 C.3     1  UNL1        0.1236
      5 C          56.9690   95.1320   -1.2450 C.ar    1  UNL1        0.0338
      6 C          55.5486   94.7916   -1.5867 C.ar    1  UNL1        0.0991
      7 N          55.0241   95.8570   -2.5031 N.ar    1  UNL1       -0.2271
      8 N          56.1203   96.8560   -2.7278 N.ar    1  UNL1       -0.1680
      9 C          57.3223   96.4079   -1.9503 C.ar    1  UNL1        0.0981
     10 C          58.7426   96.7483   -1.6086 C.3     1  UNL1        0.1414
     11 C          53.6455   95.9136   -3.0914 C.ar    1  UNL1        0.1042
     12 C          52.4544   95.5741   -2.2453 C.ar    1  UNL1        0.1181
     13 N          51.0757   95.6307   -2.8336 N.ar    1  UNL1       -0.2384
     14 C          50.8882   96.0267   -4.2682 C.ar    1  UNL1        0.1285
     15 C          52.0794   96.3661   -5.1144 C.ar    1  UNL1        0.1607
     16 F          51.8918   96.7622   -6.5490 F       1  UNL1       -0.2025
     17 C          53.4579   96.3096   -4.5261 C.ar    1  UNL1        0.0520
     18 C          62.3368   93.7853    0.6041 C.ar    1  UNL1        0.1431
     19 C          62.7201   92.6522    1.5090 C.ar    1  UNL1        0.0377
     20 C          61.7957   92.2268    2.6110 C.ar    1  UNL1        0.0134
     21 C          60.4879   92.9345    2.8081 C.ar    1  UNL1        0.0688
     22 C          60.1046   94.0677    1.9030 C.ar    1  UNL1        0.0178
     23 C          61.0291   94.4932    0.8010 C.ar    1  UNL1        0.0881
     24 C          59.5634   92.5091    3.9101 C.1     1  UNL1        0.1004
     25 N          58.6390   92.0836    5.0121 N.1     1  UNL1       -0.1908
     26 O          63.2613   94.2108   -0.4979 O.3     1  UNL1       -0.4702
     27 C          65.1257   95.8341   -1.2973 C.3     1  UNL1        0.0566
     28 C          64.4394   95.0875   -0.1921 C.3     1  UNL1        0.2599
     29 C          64.9311   95.2175    1.2190 C.3     1  UNL1        0.4340
     30 F          65.4228   95.3475    2.6301 F       1  UNL1       -0.1664
     31 F          65.6691   93.9188    1.0816 F       1  UNL1       -0.1664
     32 F          64.1931   96.5162    1.3566 F       1  UNL1       -0.1664
@<TRIPOS>BOND
     1    28    27    1
     2    28    26    1
     3    26    18    1
     4    18    19   ar
     5    19    20   ar
     6    20    21   ar
     7    21    24    1
     8    24    25    3
     9    21    22   ar
    10    22    23   ar
    11    23     1    1
    12     1     2    2
    13     1     3   am
    14     3     4    1
    15     4     5    1
    16     5     6   ar
    17     6     7   ar
    18     7    11    1
    19    11    12   ar
    20    12    13   ar
    21    13    14   ar
    22    14    15   ar
    23    15    16    1
    24    15    17   ar
    25     7     8   ar
    26     8     9   ar
    27     9    10    1
    28    28    29    1
    29    29    30    1
    30    29    31    1
    31    29    32    1
    32    23    18   ar
    33    10     3    1
    34     9     5   ar
    35    17    11   ar
