@<TRIPOS>MOLECULE
*****
 36 39 0 0 0
SMALL
GASTEIGER

@<TRIPOS>ATOM
      1 C          61.3992   86.4233    8.9483 C.ar    1  UNL1        0.0611
      2 C          60.0292   86.2689    8.3572 C.ar    1  UNL1        0.1037
      3 N          59.2289   87.4851    8.7184 N.ar    1  UNL1       -0.2269
      4 C          60.1041   88.3911    9.5327 C.ar    1  UNL1        0.1407
      5 N          59.8531   89.7288   10.1631 N.ar    1  UNL1       -0.3374
      6 C          60.9434   90.4102   10.9356 C.ar    1  UNL1        0.0735
      7 C          62.2847   89.7541   11.0777 C.ar    1  UNL1        0.0201
      8 C          62.5358   88.4164   10.4472 C.ar    1  UNL1        0.0047
      9 C          61.4455   87.7349    9.6747 C.ar    1  UNL1        0.0386
     10 H          58.9727   90.1594   10.0698 H       1  UNL1        0.1674
     11 C          63.3750   90.4356   11.8502 C.ar    1  UNL1        0.0399
     12 C          63.7438   89.9450   13.2189 C.ar    1  UNL1        0.1034
     13 N          64.8341   90.6266   13.9914 N.ar    1  UNL1       -0.2121
     14 C          65.5556   91.7988   13.3952 C.ar    1  UNL1        0.2203
     15 N          65.1867   92.2894   12.0265 N.ar    1  UNL1       -0.2121
     16 C          64.0965   91.6078   11.2541 C.ar    1  UNL1        0.1034
     17 N          66.6458   92.4803   14.1677 N.pl3   1  UNL1       -0.2747
     18 C          66.7465   93.9769   14.1614 C.3     1  UNL1        0.1151
     19 C          67.6354   91.6653   14.9465 C.3     1  UNL1        0.1151
     20 C          62.5252   85.4390    8.8331 C.2     1  UNL1        0.1994
     21 O          63.1876   85.2089    7.5072 O.2     1  UNL1       -0.2864
     22 C          62.7969   84.1682   12.5830 C.ar    1  UNL1        0.0919
     23 C          63.9159   83.1762   12.4657 C.ar    1  UNL1        0.0181
     24 C          64.5713   82.9385   11.1376 C.ar    1  UNL1        0.0016
     25 C          64.1078   83.6927    9.9267 C.ar    1  UNL1        0.0055
     26 C          62.9888   84.6847   10.0440 C.ar    1  UNL1        0.0677
     27 C          62.3334   84.9224   11.3721 C.ar    1  UNL1        0.1576
     28 F          61.2143   85.9145   11.4893 F       1  UNL1       -0.2027
     29 N          62.1415   84.4060   13.9111 N.pl3   1  UNL1       -0.2166
     30 H          61.1887   84.1914   14.0353 H       1  UNL1        0.1734
     31 S          62.9378   84.9706   15.0500 S.O2    1  UNL1        0.0540
     32 O          62.4639   83.8554   15.9342 O.2     1  UNL1       -0.1545
     33 O          63.4116   86.0858   14.1658 O.2     1  UNL1       -0.1545
     34 C          63.7340   85.5353   16.1888 C.3     1  UNL1        0.1724
     35 C          62.9599   87.7816   17.2402 C.3     1  UNL1        0.0019
     36 C          63.0422   86.2847   17.2888 C.3     1  UNL1        0.0273
@<TRIPOS>BOND
     1    35    36    1
     2    36    34    1
     3    34    31    1
     4    31    32    2
     5    31    33    2
     6    31    29    1
     7    29    22    1
     8    22    23   ar
     9    23    24   ar
    10    24    25   ar
    11    25    26   ar
    12    26    20    1
    13    20    21    2
    14    20     1    1
    15     1     2   ar
    16     2     3   ar
    17     3     4   ar
    18     4     5   ar
    19     5     6   ar
    20     6     7   ar
    21     7    11    1
    22    11    12   ar
    23    12    13   ar
    24    13    14   ar
    25    14    17    1
    26    17    18    1
    27    17    19    1
    28    14    15   ar
    29    15    16   ar
    30     7     8   ar
    31     8     9   ar
    32    26    27   ar
    33    27    28    1
    34    27    22   ar
    35     9     1   ar
    36     9     4    1
    37    16    11   ar
    38    29    30    1
    39     5    10    1
@<TRIPOS>MOLECULE
*****
 36 39 0 0 0
SMALL
GASTEIGER

@<TRIPOS>ATOM
      1 C          64.1456   86.4163   15.5196 C.ar    1  UNL1        0.0611
      2 C          63.3313   86.0282   16.7181 C.ar    1  UNL1        0.1037
      3 N          62.7668   87.2806   17.3203 N.ar    1  UNL1       -0.2269
      4 C          63.2322   88.4429   16.4941 C.ar    1  UNL1        0.1407
      5 N          62.9902   89.9185   16.6113 N.ar    1  UNL1       -0.3374
      6 C          63.6002   90.8600   15.6157 C.ar    1  UNL1        0.0735
      7 C          64.4523   90.3258   14.5028 C.ar    1  UNL1        0.0201
      8 C          64.6944   88.8502   14.3855 C.ar    1  UNL1        0.0047
      9 C          64.0843   87.9087   15.3812 C.ar    1  UNL1        0.0386
     10 H          62.4309   90.2691   17.3418 H       1  UNL1        0.1674
     11 C          65.0624   91.2674   13.5071 C.ar    1  UNL1        0.0399
     12 C          64.4019   91.4848   12.1780 C.ar    1  UNL1        0.1034
     13 N          65.0120   92.4263   11.1823 N.ar    1  UNL1       -0.2121
     14 C          66.2825   93.1505   11.5158 C.ar    1  UNL1        0.2203
     15 N          66.9430   92.9332   12.8449 N.ar    1  UNL1       -0.2121
     16 C          66.3330   91.9916   13.8405 C.ar    1  UNL1        0.1034
     17 N          66.8926   94.0921   10.5202 N.pl3   1  UNL1       -0.2747
     18 C          67.7132   93.5550    9.3853 C.3     1  UNL1        0.1151
     19 C          66.6821   95.5707   10.6595 C.3     1  UNL1        0.1151
     20 C          64.8903   85.4771   14.6179 C.2     1  UNL1        0.1994
     21 O          66.3883   85.4189   14.6680 O.2     1  UNL1       -0.2864
     22 C          62.4815   84.3243   11.6820 C.ar    1  UNL1        0.0919
     23 C          62.6304   82.8338   11.7619 C.ar    1  UNL1        0.0181
     24 C          63.5326   82.2245   12.7938 C.ar    1  UNL1        0.0016
     25 C          64.2859   83.1055   13.7458 C.ar    1  UNL1        0.0055
     26 C          64.1370   84.5959   13.6659 C.ar    1  UNL1        0.0677
     27 C          63.2348   85.2053   12.6340 C.ar    1  UNL1        0.1576
     28 F          63.0860   86.6958   12.5542 F       1  UNL1       -0.2027
     29 N          61.5793   84.9336   10.6502 N.pl3   1  UNL1       -0.2166
     30 H          60.7827   84.4441   10.3420 H       1  UNL1        0.1734
     31 S          61.8909   86.2889   10.0879 S.O2    1  UNL1        0.0540
     32 O          60.8072   86.8890   10.9337 O.2     1  UNL1       -0.1545
     33 O          62.9746   85.6888    9.2420 O.2     1  UNL1       -0.1545
     34 C          62.2025   87.6441    9.5255 C.3     1  UNL1        0.1724
     35 C          61.7089   90.1475   10.0147 C.3     1  UNL1        0.0019
     36 C          62.2924   88.8319   10.4372 C.3     1  UNL1        0.0273
@<TRIPOS>BOND
     1    35    36    1
     2    36    34    1
     3    34    31    1
     4    31    32    2
     5    31    33    2
     6    31    29    1
     7    29    22    1
     8    22    23   ar
     9    23    24   ar
    10    24    25   ar
    11    25    26   ar
    12    26    20    1
    13    20    21    2
    14    20     1    1
    15     1     2   ar
    16     2     3   ar
    17     3     4   ar
    18     4     5   ar
    19     5     6   ar
    20     6     7   ar
    21     7    11    1
    22    11    12   ar
    23    12    13   ar
    24    13    14   ar
    25    14    17    1
    26    17    18    1
    27    17    19    1
    28    14    15   ar
    29    15    16   ar
    30     7     8   ar
    31     8     9   ar
    32    26    27   ar
    33    27    28    1
    34    27    22   ar
    35     9     1   ar
    36     9     4    1
    37    16    11   ar
    38    29    30    1
    39     5    10    1
@<TRIPOS>MOLECULE
*****
 36 39 0 0 0
SMALL
GASTEIGER

@<TRIPOS>ATOM
      1 C          64.1279   86.5708   15.6265 C.ar    1  UNL1        0.0611
      2 C          63.3014   86.2451   16.8351 C.ar    1  UNL1        0.1037
      3 N          62.7583   87.5306   17.3853 N.ar    1  UNL1       -0.2269
      4 C          63.2493   88.6507   16.5167 C.ar    1  UNL1        0.1407
      5 N          63.0349   90.1341   16.5752 N.ar    1  UNL1       -0.3374
      6 C          63.6670   91.0243   15.5466 C.ar    1  UNL1        0.0735
      7 C          64.5135   90.4311   14.4596 C.ar    1  UNL1        0.0201
      8 C          64.7279   88.9477   14.4012 C.ar    1  UNL1        0.0047
      9 C          64.0957   88.0575   15.4297 C.ar    1  UNL1        0.0386
     10 H          62.4793   90.5234   17.2886 H       1  UNL1        0.1674
     11 C          65.1456   91.3214   13.4311 C.ar    1  UNL1        0.0399
     12 C          64.4276   91.6104   12.1462 C.ar    1  UNL1        0.1034
     13 N          65.0597   92.5007   11.1177 N.ar    1  UNL1       -0.2121
     14 C          66.4098   93.1019   11.3740 C.ar    1  UNL1        0.2203
     15 N          67.1278   92.8128   12.6590 N.ar    1  UNL1       -0.2121
     16 C          66.4957   91.9226   13.6874 C.ar    1  UNL1        0.1034
     17 N          67.0420   93.9922   10.3455 N.pl3   1  UNL1       -0.2747
     18 C          67.9341   93.4053    9.2922 C.3     1  UNL1        0.1151
     19 C          66.7819   95.4692   10.3704 C.3     1  UNL1        0.1151
     20 C          64.8585   85.5831   14.7658 C.2     1  UNL1        0.1994
     21 O          66.3549   85.4992   14.8251 O.2     1  UNL1       -0.2864
     22 C          62.5260   84.3571   11.7982 C.ar    1  UNL1        0.0919
     23 C          62.5606   82.8719   12.0055 C.ar    1  UNL1        0.0181
     24 C          63.3612   82.2904   13.1328 C.ar    1  UNL1        0.0016
     25 C          64.1271   83.1941   14.0529 C.ar    1  UNL1        0.0055
     26 C          64.0925   84.6793   13.8456 C.ar    1  UNL1        0.0677
     27 C          63.2919   85.2608   12.7183 C.ar    1  UNL1        0.1576
     28 F          63.2573   86.7460   12.5111 F       1  UNL1       -0.2027
     29 N          61.7254   84.9386   10.6708 N.pl3   1  UNL1       -0.2166
     30 H          60.7603   85.0974   10.7831 H       1  UNL1        0.1734
     31 S          62.3952   85.2781    9.3724 S.O2    1  UNL1        0.0540
     32 O          63.3338   84.1223    9.5544 O.2     1  UNL1       -0.1545
     33 O          61.4567   86.4339    9.1903 O.2     1  UNL1       -0.1545
     34 C          63.0650   85.6176    8.0739 C.3     1  UNL1        0.1724
     35 C          61.5455   84.5627    6.2494 C.3     1  UNL1        0.0019
     36 C          62.8953   84.7190    6.8849 C.3     1  UNL1        0.0273
@<TRIPOS>BOND
     1    35    36    1
     2    36    34    1
     3    34    31    1
     4    31    32    2
     5    31    33    2
     6    31    29    1
     7    29    22    1
     8    22    23   ar
     9    23    24   ar
    10    24    25   ar
    11    25    26   ar
    12    26    20    1
    13    20    21    2
    14    20     1    1
    15     1     2   ar
    16     2     3   ar
    17     3     4   ar
    18     4     5   ar
    19     5     6   ar
    20     6     7   ar
    21     7    11    1
    22    11    12   ar
    23    12    13   ar
    24    13    14   ar
    25    14    17    1
    26    17    18    1
    27    17    19    1
    28    14    15   ar
    29    15    16   ar
    30     7     8   ar
    31     8     9   ar
    32    26    27   ar
    33    27    28    1
    34    27    22   ar
    35     9     1   ar
    36     9     4    1
    37    16    11   ar
    38    29    30    1
    39     5    10    1
@<TRIPOS>MOLECULE
*****
 36 39 0 0 0
SMALL
GASTEIGER

@<TRIPOS>ATOM
      1 C          64.1391   86.8428   15.5767 C.ar    1  UNL1        0.0611
      2 C          63.3052   86.5289   16.7834 C.ar    1  UNL1        0.1037
      3 N          62.7526   87.8188   17.3132 N.ar    1  UNL1       -0.2269
      4 C          63.2451   88.9300   16.4341 C.ar    1  UNL1        0.1407
      5 N          63.0239   90.4130   16.4722 N.ar    1  UNL1       -0.3374
      6 C          63.6597   91.2929   15.4370 C.ar    1  UNL1        0.0735
      7 C          64.5166   90.6897   14.3638 C.ar    1  UNL1        0.0201
      8 C          64.7378   89.2066   14.3257 C.ar    1  UNL1        0.0047
      9 C          64.1020   88.3268   15.3609 C.ar    1  UNL1        0.0386
     10 H          62.4615   90.8089   17.1766 H       1  UNL1        0.1674
     11 C          65.1524   91.5697   13.3286 C.ar    1  UNL1        0.0399
     12 C          66.4237   92.3006   13.6439 C.ar    1  UNL1        0.1034
     13 N          67.0595   93.1805   12.6087 N.ar    1  UNL1       -0.2121
     14 C          66.4238   93.3296   11.2583 C.ar    1  UNL1        0.2203
     15 N          65.1524   92.5987   10.9430 N.ar    1  UNL1       -0.2121
     16 C          64.5167   91.7188   11.9782 C.ar    1  UNL1        0.1034
     17 N          67.0595   94.2095   10.2231 N.pl3   1  UNL1       -0.2747
     18 C          66.6696   95.6546   10.1254 C.3     1  UNL1        0.1151
     19 C          68.0851   93.6443    9.2857 C.3     1  UNL1        0.1151
     20 C          64.8802   85.8476   14.7339 C.2     1  UNL1        0.1994
     21 O          66.3684   85.7145   14.8647 O.2     1  UNL1       -0.2864
     22 C          63.4391   82.6294   12.9125 C.ar    1  UNL1        0.0919
     23 C          62.6382   83.2610   11.8127 C.ar    1  UNL1        0.0181
     24 C          62.5846   84.7547   11.6866 C.ar    1  UNL1        0.0016
     25 C          63.3318   85.6169   12.6603 C.ar    1  UNL1        0.0055
     26 C          64.1328   84.9854   13.7601 C.ar    1  UNL1        0.0677
     27 C          64.1864   83.4916   13.8862 C.ar    1  UNL1        0.1576
     28 F          64.9874   82.8601   14.9861 F       1  UNL1       -0.2027
     29 N          63.4928   81.1357   13.0386 N.pl3   1  UNL1       -0.2166
     30 H          64.3268   80.6541   12.8343 H       1  UNL1        0.1734
     31 S          62.2757   80.3758   13.4759 S.O2    1  UNL1        0.0540
     32 O          62.1306   81.2882   14.6576 O.2     1  UNL1       -0.1545
     33 O          62.4208   79.4634   12.2942 O.2     1  UNL1       -0.1545
     34 C          61.0586   79.6159   13.9131 C.3     1  UNL1        0.1724
     35 C          58.5605   79.5864   14.6266 C.3     1  UNL1        0.0019
     36 C          59.7846   80.3486   14.2135 C.3     1  UNL1        0.0273
@<TRIPOS>BOND
     1    35    36    1
     2    36    34    1
     3    34    31    1
     4    31    32    2
     5    31    33    2
     6    31    29    1
     7    29    22    1
     8    22    23   ar
     9    23    24   ar
    10    24    25   ar
    11    25    26   ar
    12    26    20    1
    13    20    21    2
    14    20     1    1
    15     1     2   ar
    16     2     3   ar
    17     3     4   ar
    18     4     5   ar
    19     5     6   ar
    20     6     7   ar
    21     7    11    1
    22    11    12   ar
    23    12    13   ar
    24    13    14   ar
    25    14    17    1
    26    17    18    1
    27    17    19    1
    28    14    15   ar
    29    15    16   ar
    30     7     8   ar
    31     8     9   ar
    32    26    27   ar
    33    27    28    1
    34    27    22   ar
    35     9     1   ar
    36     9     4    1
    37    16    11   ar
    38    29    30    1
    39     5    10    1
@<TRIPOS>MOLECULE
*****
 36 39 0 0 0
SMALL
GASTEIGER

@<TRIPOS>ATOM
      1 C          61.6521   86.2840    9.5272 C.ar    1  UNL1        0.0611
      2 C          60.4189   86.2010    8.6772 C.ar    1  UNL1        0.1037
      3 N          59.7422   87.5392    8.7105 N.ar    1  UNL1       -0.2269
      4 C          60.5571   88.4493    9.5810 C.ar    1  UNL1        0.1407
      5 N          60.3767   89.8841    9.9793 N.ar    1  UNL1       -0.3374
      6 C          61.3768   90.5431   10.8823 C.ar    1  UNL1        0.0735
      7 C          62.5572   89.7673   11.3871 C.ar    1  UNL1        0.0201
      8 C          62.7375   88.3325   10.9888 C.ar    1  UNL1        0.0047
      9 C          61.7375   87.6735   10.0858 C.ar    1  UNL1        0.0386
     10 H          59.6020   90.3933    9.6480 H       1  UNL1        0.1674
     11 C          63.5573   90.4264   12.2901 C.ar    1  UNL1        0.0399
     12 C          64.1396   91.7580   11.9192 C.ar    1  UNL1        0.1034
     13 N          65.1397   92.4171   12.8222 N.ar    1  UNL1       -0.2121
     14 C          65.5575   91.7445   14.0963 C.ar    1  UNL1        0.2203
     15 N          64.9751   90.4128   14.4672 N.ar    1  UNL1       -0.2121
     16 C          63.9750   89.7538   13.5642 C.ar    1  UNL1        0.1034
     17 N          66.5575   92.4035   14.9993 N.pl3   1  UNL1       -0.2747
     18 C          67.9270   92.7362   14.4857 C.3     1  UNL1        0.1151
     19 C          66.1881   92.7299   16.4160 C.3     1  UNL1        0.1151
     20 C          62.6284   85.1725    9.7751 C.2     1  UNL1        0.1994
     21 O          63.2612   84.4581    8.6179 O.2     1  UNL1       -0.2864
     22 C          63.4167   82.9274   12.9513 C.ar    1  UNL1        0.0919
     23 C          63.6594   83.9817   13.9904 C.ar    1  UNL1        0.0181
     24 C          63.5584   85.4328   13.6244 C.ar    1  UNL1        0.0016
     25 C          63.2148   85.8298   12.2194 C.ar    1  UNL1        0.0055
     26 C          62.9721   84.7756   11.1803 C.ar    1  UNL1        0.0677
     27 C          63.0731   83.3244   11.5463 C.ar    1  UNL1        0.1576
     28 F          62.8304   82.2703   10.5071 F       1  UNL1       -0.2027
     29 N          63.5177   81.4763   13.3173 N.pl3   1  UNL1       -0.2166
     30 H          64.4015   81.0553   13.4217 H       1  UNL1        0.1734
     31 S          62.2721   80.6666   13.5244 S.O2    1  UNL1        0.0540
     32 O          62.6709   79.7641   12.3946 O.2     1  UNL1       -0.1545
     33 O          61.8732   81.5691   14.6541 O.2     1  UNL1       -0.1545
     34 C          61.0265   79.8570   13.7315 C.3     1  UNL1        0.1724
     35 C          58.6092   79.6759   14.6664 C.3     1  UNL1        0.0019
     36 C          59.7838   80.5135   14.2557 C.3     1  UNL1        0.0273
@<TRIPOS>BOND
     1    35    36    1
     2    36    34    1
     3    34    31    1
     4    31    32    2
     5    31    33    2
     6    31    29    1
     7    29    22    1
     8    22    23   ar
     9    23    24   ar
    10    24    25   ar
    11    25    26   ar
    12    26    20    1
    13    20    21    2
    14    20     1    1
    15     1     2   ar
    16     2     3   ar
    17     3     4   ar
    18     4     5   ar
    19     5     6   ar
    20     6     7   ar
    21     7    11    1
    22    11    12   ar
    23    12    13   ar
    24    13    14   ar
    25    14    17    1
    26    17    18    1
    27    17    19    1
    28    14    15   ar
    29    15    16   ar
    30     7     8   ar
    31     8     9   ar
    32    26    27   ar
    33    27    28    1
    34    27    22   ar
    35     9     1   ar
    36     9     4    1
    37    16    11   ar
    38    29    30    1
    39     5    10    1
@<TRIPOS>MOLECULE
*****
 36 39 0 0 0
SMALL
GASTEIGER

@<TRIPOS>ATOM
      1 C          63.4820   83.9406   13.2971 C.ar    1  UNL1        0.0611
      2 C          62.9314   82.9001   14.2267 C.ar    1  UNL1        0.1037
      3 N          62.6973   83.5467   15.5597 N.ar    1  UNL1       -0.2269
      4 C          63.1032   84.9869   15.4541 C.ar    1  UNL1        0.1407
      5 N          63.0937   86.1080   16.4505 N.ar    1  UNL1       -0.3374
      6 C          63.5694   87.4726   16.0486 C.ar    1  UNL1        0.0735
      7 C          64.0544   87.7161   14.6502 C.ar    1  UNL1        0.0201
      8 C          64.0638   86.5949   13.6537 C.ar    1  UNL1        0.0047
      9 C          63.5882   85.2303   14.0557 C.ar    1  UNL1        0.0386
     10 H          62.7754   85.9482   17.3683 H       1  UNL1        0.1674
     11 C          64.5301   89.0808   14.2483 C.ar    1  UNL1        0.0399
     12 C          63.8362   89.8218   13.1440 C.ar    1  UNL1        0.1034
     13 N          64.3119   91.1865   12.7421 N.ar    1  UNL1       -0.2121
     14 C          65.4814   91.8101   13.4445 C.ar    1  UNL1        0.2203
     15 N          66.1753   91.0690   14.5488 N.ar    1  UNL1       -0.2121
     16 C          65.6996   89.7044   14.9507 C.ar    1  UNL1        0.1034
     17 N          65.9571   93.1747   13.0426 N.pl3   1  UNL1       -0.2747
     18 C          66.6296   94.0609   14.0487 C.3     1  UNL1        0.1151
     19 C          65.7602   93.6531   11.6347 C.3     1  UNL1        0.1151
     20 C          63.8602   83.7287   11.8611 C.2     1  UNL1        0.1994
     21 O          64.9289   82.7383   11.5052 O.2     1  UNL1       -0.2864
     22 C          61.2607   86.0993   10.0244 C.ar    1  UNL1        0.0919
     23 C          61.7882   86.0646    8.6206 C.ar    1  UNL1        0.0181
     24 C          63.0063   85.2513    8.2970 C.ar    1  UNL1        0.0016
     25 C          63.6970   84.4727    9.3771 C.ar    1  UNL1        0.0055
     26 C          63.1695   84.5074   10.7809 C.ar    1  UNL1        0.0677
     27 C          61.9513   85.3206   11.1045 C.ar    1  UNL1        0.1576
     28 F          61.4239   85.3552   12.5083 F       1  UNL1       -0.2027
     29 N          60.0425   86.9125   10.3480 N.pl3   1  UNL1       -0.2166
     30 H          59.1959   86.4630   10.5723 H       1  UNL1        0.1734
     31 S          60.1144   88.4107   10.3297 S.O2    1  UNL1        0.0540
     32 O          60.5198   88.4088   11.7739 O.2     1  UNL1       -0.1545
     33 O          59.7090   88.4125    8.8855 O.2     1  UNL1       -0.1545
     34 C          60.1862   89.9088   10.3113 C.3     1  UNL1        0.1724
     35 C          62.6448   90.5407    9.7580 C.3     1  UNL1        0.0019
     36 C          61.4637   90.6030   10.6804 C.3     1  UNL1        0.0273
@<TRIPOS>BOND
     1    35    36    1
     2    36    34    1
     3    34    31    1
     4    31    32    2
     5    31    33    2
     6    31    29    1
     7    29    22    1
     8    22    23   ar
     9    23    24   ar
    10    24    25   ar
    11    25    26   ar
    12    26    20    1
    13    20    21    2
    14    20     1    1
    15     1     2   ar
    16     2     3   ar
    17     3     4   ar
    18     4     5   ar
    19     5     6   ar
    20     6     7   ar
    21     7    11    1
    22    11    12   ar
    23    12    13   ar
    24    13    14   ar
    25    14    17    1
    26    17    18    1
    27    17    19    1
    28    14    15   ar
    29    15    16   ar
    30     7     8   ar
    31     8     9   ar
    32    26    27   ar
    33    27    28    1
    34    27    22   ar
    35     9     1   ar
    36     9     4    1
    37    16    11   ar
    38    29    30    1
    39     5    10    1
@<TRIPOS>MOLECULE
*****
 36 39 0 0 0
SMALL
GASTEIGER

@<TRIPOS>ATOM
      1 C          61.3340   87.5729   10.5375 C.ar    1  UNL1        0.0611
      2 C          60.3296   87.6580    9.4266 C.ar    1  UNL1        0.1037
      3 N          60.4294   89.0242    8.8153 N.ar    1  UNL1       -0.2269
      4 C          61.4954   89.7833    9.5483 C.ar    1  UNL1        0.1407
      5 N          62.0292   91.1755    9.3841 N.ar    1  UNL1       -0.3374
      6 C          63.1221   91.6706   10.2843 C.ar    1  UNL1        0.0735
      7 C          63.6812   90.7737   11.3487 C.ar    1  UNL1        0.0201
      8 C          63.1474   89.3815   11.5129 C.ar    1  UNL1        0.0047
      9 C          62.0545   88.8864   10.6127 C.ar    1  UNL1        0.0386
     10 H          61.6622   91.7642    8.6856 H       1  UNL1        0.1674
     11 C          64.7741   91.2689   12.2489 C.ar    1  UNL1        0.0399
     12 C          65.6973   92.3544   11.7806 C.ar    1  UNL1        0.1034
     13 N          66.7903   92.8496   12.6808 N.ar    1  UNL1       -0.2121
     14 C          66.9600   92.2593   14.0492 C.ar    1  UNL1        0.2203
     15 N          66.0367   91.1737   14.5175 N.ar    1  UNL1       -0.2121
     16 C          64.9438   90.6786   13.6173 C.ar    1  UNL1        0.1034
     17 N          68.0528   92.7545   14.9494 N.pl3   1  UNL1       -0.2747
     18 C          69.4574   92.2613   14.7652 C.3     1  UNL1        0.1151
     19 C          67.7412   93.7429   16.0339 C.3     1  UNL1        0.1151
     20 C          61.5755   86.3831   11.4184 C.2     1  UNL1        0.1994
     21 O          60.9427   86.3147   12.7766 O.2     1  UNL1       -0.2864
     22 C          63.7642   83.0725   11.4214 C.ar    1  UNL1        0.0919
     23 C          64.1989   83.0188    9.9867 C.ar    1  UNL1        0.0181
     24 C          63.7591   84.0865    9.0293 C.ar    1  UNL1        0.0016
     25 C          62.8847   85.2079    9.5065 C.ar    1  UNL1        0.0055
     26 C          62.4500   85.2616   10.9412 C.ar    1  UNL1        0.0677
     27 C          62.8898   84.1939   11.8985 C.ar    1  UNL1        0.1576
     28 F          62.4551   84.2477   13.3332 F       1  UNL1       -0.2027
     29 N          64.2040   82.0048   12.3788 N.pl3   1  UNL1       -0.2166
     30 H          65.1634   81.8422   12.5279 H       1  UNL1        0.1734
     31 S          63.1819   81.1849   13.1089 S.O2    1  UNL1        0.0540
     32 O          62.6574   80.6732   11.8000 O.2     1  UNL1       -0.1545
     33 O          63.7064   81.6966   14.4177 O.2     1  UNL1       -0.1545
     34 C          62.1599   80.3650   13.8391 C.3     1  UNL1        0.1724
     35 C          59.6053   80.0983   14.2306 C.3     1  UNL1        0.0019
     36 C          60.8300   80.9634   14.1903 C.3     1  UNL1        0.0273
@<TRIPOS>BOND
     1    35    36    1
     2    36    34    1
     3    34    31    1
     4    31    32    2
     5    31    33    2
     6    31    29    1
     7    29    22    1
     8    22    23   ar
     9    23    24   ar
    10    24    25   ar
    11    25    26   ar
    12    26    20    1
    13    20    21    2
    14    20     1    1
    15     1     2   ar
    16     2     3   ar
    17     3     4   ar
    18     4     5   ar
    19     5     6   ar
    20     6     7   ar
    21     7    11    1
    22    11    12   ar
    23    12    13   ar
    24    13    14   ar
    25    14    17    1
    26    17    18    1
    27    17    19    1
    28    14    15   ar
    29    15    16   ar
    30     7     8   ar
    31     8     9   ar
    32    26    27   ar
    33    27    28    1
    34    27    22   ar
    35     9     1   ar
    36     9     4    1
    37    16    11   ar
    38    29    30    1
    39     5    10    1
@<TRIPOS>MOLECULE
*****
 36 39 0 0 0
SMALL
GASTEIGER

@<TRIPOS>ATOM
      1 C          64.5414   90.9022   14.9592 C.ar    1  UNL1        0.0611
      2 C          64.2500   91.8763   16.0620 C.ar    1  UNL1        0.1037
      3 N          63.6271   91.1187   17.1969 N.ar    1  UNL1       -0.2269
      4 C          63.5335   89.6765   16.7956 C.ar    1  UNL1        0.1407
      5 N          63.0067   88.4678   17.5107 N.ar    1  UNL1       -0.3374
      6 C          63.0451   87.1252   16.8429 C.ar    1  UNL1        0.0735
      7 C          63.6101   86.9914   15.4599 C.ar    1  UNL1        0.0201
      8 C          64.1369   88.2001   14.7447 C.ar    1  UNL1        0.0047
      9 C          64.0986   89.5426   15.4125 C.ar    1  UNL1        0.0386
     10 H          62.6359   88.5556   18.4185 H       1  UNL1        0.1674
     11 C          63.6484   85.6487   14.7920 C.ar    1  UNL1        0.0399
     12 C          63.7903   84.4043   15.6174 C.ar    1  UNL1        0.1034
     13 N          63.8286   83.0617   14.9496 N.ar    1  UNL1       -0.2121
     14 C          63.7250   82.9636   13.4564 C.ar    1  UNL1        0.2203
     15 N          63.5831   84.2081   12.6310 N.ar    1  UNL1       -0.2121
     16 C          63.5449   85.5506   13.2988 C.ar    1  UNL1        0.1034
     17 N          63.7633   81.6210   12.7885 N.pl3   1  UNL1       -0.2747
     18 C          64.0444   81.5224   11.3184 C.3     1  UNL1        0.1151
     19 C          63.5206   80.3770   13.5908 C.3     1  UNL1        0.1151
     20 C          65.1659   91.2300   13.6354 C.2     1  UNL1        0.1994
     21 O          66.6309   91.5414   13.5538 O.2     1  UNL1       -0.2864
     22 C          62.1156   90.6506   11.1635 C.ar    1  UNL1        0.0919
     23 C          62.6443   91.2794    9.9085 C.ar    1  UNL1        0.0181
     24 C          64.0136   91.8917    9.8958 C.ar    1  UNL1        0.0016
     25 C          64.8541   91.8753   11.1380 C.ar    1  UNL1        0.0055
     26 C          64.3254   91.2465   12.3930 C.ar    1  UNL1        0.0677
     27 C          62.9561   90.6342   12.4057 C.ar    1  UNL1        0.1576
     28 F          62.4274   90.0054   13.6608 F       1  UNL1       -0.2027
     29 N          60.7463   90.0383   11.1762 N.pl3   1  UNL1       -0.2166
     30 H          60.0086   90.4918   11.6445 H       1  UNL1        0.1734
     31 S          60.5011   88.7349   10.4755 S.O2    1  UNL1        0.0540
     32 O          60.9983   87.9933   11.6808 O.2     1  UNL1       -0.1545
     33 O          60.0039   89.4764    9.2702 O.2     1  UNL1       -0.1545
     34 C          60.2558   87.4316    9.7747 C.3     1  UNL1        0.1724
     35 C          62.3125   86.0618    8.9721 C.3     1  UNL1        0.0019
     36 C          61.2087   86.2883    9.9621 C.3     1  UNL1        0.0273
@<TRIPOS>BOND
     1    35    36    1
     2    36    34    1
     3    34    31    1
     4    31    32    2
     5    31    33    2
     6    31    29    1
     7    29    22    1
     8    22    23   ar
     9    23    24   ar
    10    24    25   ar
    11    25    26   ar
    12    26    20    1
    13    20    21    2
    14    20     1    1
    15     1     2   ar
    16     2     3   ar
    17     3     4   ar
    18     4     5   ar
    19     5     6   ar
    20     6     7   ar
    21     7    11    1
    22    11    12   ar
    23    12    13   ar
    24    13    14   ar
    25    14    17    1
    26    17    18    1
    27    17    19    1
    28    14    15   ar
    29    15    16   ar
    30     7     8   ar
    31     8     9   ar
    32    26    27   ar
    33    27    28    1
    34    27    22   ar
    35     9     1   ar
    36     9     4    1
    37    16    11   ar
    38    29    30    1
    39     5    10    1
@<TRIPOS>MOLECULE
*****
 36 39 0 0 0
SMALL
GASTEIGER

@<TRIPOS>ATOM
      1 C          63.8398   90.0527   14.7575 C.ar    1  UNL1        0.0611
      2 C          63.7842   90.9948   15.9234 C.ar    1  UNL1        0.1037
      3 N          63.4702   90.1936   17.1520 N.ar    1  UNL1       -0.2269
      4 C          63.3318   88.7564   16.7455 C.ar    1  UNL1        0.1407
      5 N          63.0274   87.5158   17.5317 N.ar    1  UNL1       -0.3374
      6 C          62.9513   86.1881   16.8379 C.ar    1  UNL1        0.0735
      7 C          63.1796   86.1010   15.3580 C.ar    1  UNL1        0.0201
      8 C          63.4841   87.3416   14.5718 C.ar    1  UNL1        0.0047
      9 C          63.5602   88.6693   15.2655 C.ar    1  UNL1        0.0386
     10 H          62.8775   87.5730   18.5030 H       1  UNL1        0.1674
     11 C          63.1035   84.7732   14.6642 C.ar    1  UNL1        0.0399
     12 C          62.9781   83.5131   15.4681 C.ar    1  UNL1        0.1034
     13 N          62.9020   82.1853   14.7744 N.ar    1  UNL1       -0.2121
     14 C          62.9513   82.1177   13.2767 C.ar    1  UNL1        0.2203
     15 N          63.0767   83.3779   12.4728 N.ar    1  UNL1       -0.2121
     16 C          63.1528   84.7056   13.1666 C.ar    1  UNL1        0.1034
     17 N          62.8752   80.7900   12.5830 N.pl3   1  UNL1       -0.2747
     18 C          63.2138   80.6849   11.1255 C.3     1  UNL1        0.1151
     19 C          62.4605   79.5674   13.3467 C.3     1  UNL1        0.1151
     20 C          64.1249   90.4280   13.3334 C.2     1  UNL1        0.1994
     21 O          63.5451   89.6163   12.2133 O.2     1  UNL1       -0.2864
     22 C          65.6299   93.5927   11.4705 C.ar    1  UNL1        0.0919
     23 C          66.7197   93.9897   12.4217 C.ar    1  UNL1        0.0181
     24 C          66.9446   93.1996   13.6767 C.ar    1  UNL1        0.0016
     25 C          66.0797   92.0124   13.9807 C.ar    1  UNL1        0.0055
     26 C          64.9899   91.6153   13.0295 C.ar    1  UNL1        0.0677
     27 C          64.7650   92.4055   11.7745 C.ar    1  UNL1        0.1576
     28 F          63.6752   92.0084   10.8234 F       1  UNL1       -0.2027
     29 N          65.4051   94.3828   10.2155 N.pl3   1  UNL1       -0.2166
     30 H          64.5561   94.2960    9.7246 H       1  UNL1        0.1734
     31 S          66.4736   95.3053    9.7085 S.O2    1  UNL1        0.0540
     32 O          65.7718   96.4682   10.3450 O.2     1  UNL1       -0.1545
     33 O          67.1755   94.1425    9.0720 O.2     1  UNL1       -0.1545
     34 C          67.5423   96.2278    9.2015 C.3     1  UNL1        0.1724
     35 C          66.1065   96.7949    7.1117 C.3     1  UNL1        0.0019
     36 C          67.4172   96.8435    7.8393 C.3     1  UNL1        0.0273
@<TRIPOS>BOND
     1    35    36    1
     2    36    34    1
     3    34    31    1
     4    31    32    2
     5    31    33    2
     6    31    29    1
     7    29    22    1
     8    22    23   ar
     9    23    24   ar
    10    24    25   ar
    11    25    26   ar
    12    26    20    1
    13    20    21    2
    14    20     1    1
    15     1     2   ar
    16     2     3   ar
    17     3     4   ar
    18     4     5   ar
    19     5     6   ar
    20     6     7   ar
    21     7    11    1
    22    11    12   ar
    23    12    13   ar
    24    13    14   ar
    25    14    17    1
    26    17    18    1
    27    17    19    1
    28    14    15   ar
    29    15    16   ar
    30     7     8   ar
    31     8     9   ar
    32    26    27   ar
    33    27    28    1
    34    27    22   ar
    35     9     1   ar
    36     9     4    1
    37    16    11   ar
    38    29    30    1
    39     5    10    1
