@<TRIPOS>MOLECULE
*****
 30 32 0 0 0
SMALL
GASTEIGER

@<TRIPOS>ATOM
      1 C          64.4299   89.0574   14.2523 C.ar    1  UNL1        0.0594
      2 C          64.7804   88.0438   15.3010 C.ar    1  UNL1        0.0164
      3 C          64.3934   86.6068   15.1140 C.ar    1  UNL1        0.0181
      4 C          63.6559   86.1833   13.8784 C.ar    1  UNL1        0.0758
      5 C          63.3054   87.1969   12.8297 C.ar    1  UNL1        0.1546
      6 F          62.5680   86.7734   11.5941 F       1  UNL1       -0.2028
      7 C          63.6924   88.6339   13.0167 C.ar    1  UNL1        0.0459
      8 N          63.2690   84.7461   13.6914 N.pl3   1  UNL1       -0.3023
      9 C          62.3929   84.0677   14.7024 C.3     1  UNL1        0.1124
     10 C          62.0059   82.6305   14.5155 C.3     1  UNL1        0.1149
     11 N          62.4951   81.8718   13.3175 N.am    1  UNL1       -0.2740
     12 C          62.1081   80.4347   13.1306 C.2     1  UNL1        0.2557
     13 O          62.5973   79.6761   11.9326 O.2     1  UNL1       -0.2722
     14 C          63.3712   82.5503   12.3065 C.3     1  UNL1        0.1149
     15 C          63.7581   83.9874   12.4935 C.3     1  UNL1        0.1124
     16 C          61.2320   79.7563   14.1416 C.3     1  UNL1        0.2232
     17 O          59.8205   80.2219   14.3436 O.3     1  UNL1       -0.3737
     18 H          59.8256   81.1201   14.7099 H       1  UNL1        0.2110
     19 C          65.7913   92.6882   14.0799 C.3     1  UNL1        0.2100
     20 C          65.6575   91.3104   13.5023 C.3     1  UNL1        0.1468
     21 N          64.8169   90.4946   14.4393 N.am    1  UNL1       -0.2212
     22 C          64.4312   91.3683   15.5960 C.2     1  UNL1        0.4088
     23 O          63.5909   90.9582   16.7689 O.2     1  UNL1       -0.2258
     24 O          65.0334   92.7240   15.3739 O.3     1  UNL1       -0.4345
     25 C          66.5498   93.8298   13.4705 C.3     1  UNL1        0.1352
     26 C          66.7816   95.0652    9.7062 C.3     1  UNL1        0.0946
     27 C          66.4992   95.0537   11.1793 C.2     1  UNL1        0.2231
     28 O          65.8838   96.2546   11.8344 O.2     1  UNL1       -0.2751
     29 N          66.8322   93.8413   11.9973 N.am    1  UNL1       -0.3011
     30 H          67.2361   93.0531   11.5674 H       1  UNL1        0.1495
@<TRIPOS>BOND
     1    26    27    1
     2    27    28    2
     3    27    29   am
     4    29    25    1
     5    19    25    1
     6    19    20    1
     7    20    21    1
     8    21     1    1
     9     1     2   ar
    10     2     3   ar
    11     3     4   ar
    12     4     8    1
    13     8     9    1
    14     9    10    1
    15    10    11    1
    16    11    12   am
    17    12    13    2
    18    12    16    1
    19    16    17    1
    20    11    14    1
    21    14    15    1
    22     4     5   ar
    23     5     6    1
    24     5     7   ar
    25    21    22   am
    26    22    23    2
    27    22    24    1
    28    24    19    1
    29     7     1   ar
    30    15     8    1
    31    29    30    1
    32    17    18    1
@<TRIPOS>MOLECULE
*****
 30 32 0 0 0
SMALL
GASTEIGER

@<TRIPOS>ATOM
      1 C          64.4253   88.8603   14.2968 C.ar    1  UNL1        0.0594
      2 C          63.7303   88.4912   13.0199 C.ar    1  UNL1        0.0164
      3 C          63.3964   87.0568   12.7353 C.ar    1  UNL1        0.0181
      4 C          63.7574   85.9916   13.7278 C.ar    1  UNL1        0.0758
      5 C          64.4524   86.3607   15.0047 C.ar    1  UNL1        0.1546
      6 F          64.8134   85.2955   15.9972 F       1  UNL1       -0.2028
      7 C          64.7863   87.7951   15.2893 C.ar    1  UNL1        0.0459
      8 N          63.4235   84.5571   13.4432 N.pl3   1  UNL1       -0.3023
      9 C          63.9986   83.8786   12.2354 C.3     1  UNL1        0.1124
     10 C          63.6646   82.4441   11.9508 C.3     1  UNL1        0.1149
     11 N          62.7555   81.6883   12.8740 N.am    1  UNL1       -0.2740
     12 C          62.4215   80.2540   12.5895 C.2     1  UNL1        0.2557
     13 O          61.5125   79.4982   13.5127 O.2     1  UNL1       -0.2722
     14 C          62.1804   82.3670   14.0818 C.3     1  UNL1        0.1149
     15 C          62.5144   83.8014   14.3664 C.3     1  UNL1        0.1124
     16 C          62.9966   79.5754   11.3817 C.3     1  UNL1        0.2232
     17 O          62.5550   79.9872   10.0085 O.3     1  UNL1       -0.3737
     18 H          61.6185   79.7641    9.8896 H       1  UNL1        0.2110
     19 C          65.7374   92.5109   14.4302 C.3     1  UNL1        0.2100
     20 C          65.7066   91.1521   13.7956 C.3     1  UNL1        0.1468
     21 N          64.7593   90.2948   14.5814 N.am    1  UNL1       -0.2212
     22 C          64.2046   91.1237   15.7018 C.2     1  UNL1        0.4088
     23 O          63.2185   90.6637   16.7343 O.2     1  UNL1       -0.2258
     24 O          64.8091   92.4933   15.6084 O.3     1  UNL1       -0.4345
     25 C          66.5532   93.6817   13.9680 C.3     1  UNL1        0.1352
     26 C          66.0790   94.9243   10.2289 C.3     1  UNL1        0.0946
     27 C          66.5321   94.1124   11.4060 C.2     1  UNL1        0.2231
     28 O          67.4172   92.9194   11.1981 O.2     1  UNL1       -0.2751
     29 N          66.1001   94.4936   12.7909 N.am    1  UNL1       -0.3011
     30 H          65.5192   95.2766   12.9273 H       1  UNL1        0.1495
@<TRIPOS>BOND
     1    26    27    1
     2    27    28    2
     3    27    29   am
     4    29    25    1
     5    19    25    1
     6    19    20    1
     7    20    21    1
     8    21     1    1
     9     1     2   ar
    10     2     3   ar
    11     3     4   ar
    12     4     8    1
    13     8     9    1
    14     9    10    1
    15    10    11    1
    16    11    12   am
    17    12    13    2
    18    12    16    1
    19    16    17    1
    20    11    14    1
    21    14    15    1
    22     4     5   ar
    23     5     6    1
    24     5     7   ar
    25    21    22   am
    26    22    23    2
    27    22    24    1
    28    24    19    1
    29     7     1   ar
    30    15     8    1
    31    29    30    1
    32    17    18    1
@<TRIPOS>MOLECULE
*****
 30 32 0 0 0
SMALL
GASTEIGER

@<TRIPOS>ATOM
      1 C          72.3206   77.8089   12.6436 C.ar    1  UNL1        0.0594
      2 C          72.5301   77.8069   14.1288 C.ar    1  UNL1        0.0164
      3 C          72.3454   76.5402   14.9106 C.ar    1  UNL1        0.0181
      4 C          71.9513   75.2754   14.2071 C.ar    1  UNL1        0.0758
      5 C          71.7418   75.2773   12.7218 C.ar    1  UNL1        0.1546
      6 F          71.3477   74.0125   12.0184 F       1  UNL1       -0.2028
      7 C          71.9265   76.5440   11.9401 C.ar    1  UNL1        0.0459
      8 N          71.7666   74.0086   14.9890 N.pl3   1  UNL1       -0.3023
      9 C          72.5860   72.7967   14.6578 C.3     1  UNL1        0.1124
     10 C          72.4014   71.5299   15.4397 C.3     1  UNL1        0.1149
     11 N          71.3973   71.4751   16.5527 N.am    1  UNL1       -0.2740
     12 C          71.2126   70.2084   17.3346 C.2     1  UNL1        0.2557
     13 O          70.2085   70.1537   18.4476 O.2     1  UNL1       -0.2722
     14 C          70.5779   72.6872   16.8839 C.3     1  UNL1        0.1149
     15 C          70.7625   73.9539   16.1020 C.3     1  UNL1        0.1124
     16 C          72.0320   68.9965   17.0034 C.3     1  UNL1        0.2232
     17 O          71.7067   68.1805   15.7874 O.3     1  UNL1       -0.3737
     18 H          70.8383   67.7634   15.9008 H       1  UNL1        0.2110
     19 C          72.4837   80.6980   10.0566 C.3     1  UNL1        0.2100
     20 C          72.1192   79.2912   10.4283 C.3     1  UNL1        0.1468
     21 N          72.5053   79.0756   11.8617 N.am    1  UNL1       -0.2212
     22 C          73.1083   80.3491   12.3759 C.2     1  UNL1        0.4088
     23 O          73.6327   80.5796   13.7622 O.2     1  UNL1       -0.2258
     24 O          73.0950   81.3518   11.2604 O.3     1  UNL1       -0.4345
     25 C          72.2738   81.3385    8.7166 C.3     1  UNL1        0.1352
     26 C          70.6111   80.4540    5.2233 C.3     1  UNL1        0.0946
     27 C          71.4446   81.1440    6.2621 C.2     1  UNL1        0.2231
     28 O          72.2825   82.3297    5.8851 O.2     1  UNL1       -0.2751
     29 N          71.4402   80.6484    7.6778 N.am    1  UNL1       -0.3011
     30 H          70.8903   79.8702    7.9253 H       1  UNL1        0.1495
@<TRIPOS>BOND
     1    26    27    1
     2    27    28    2
     3    27    29   am
     4    29    25    1
     5    19    25    1
     6    19    20    1
     7    20    21    1
     8    21     1    1
     9     1     2   ar
    10     2     3   ar
    11     3     4   ar
    12     4     8    1
    13     8     9    1
    14     9    10    1
    15    10    11    1
    16    11    12   am
    17    12    13    2
    18    12    16    1
    19    16    17    1
    20    11    14    1
    21    14    15    1
    22     4     5   ar
    23     5     6    1
    24     5     7   ar
    25    21    22   am
    26    22    23    2
    27    22    24    1
    28    24    19    1
    29     7     1   ar
    30    15     8    1
    31    29    30    1
    32    17    18    1
@<TRIPOS>MOLECULE
*****
 30 32 0 0 0
SMALL
GASTEIGER

@<TRIPOS>ATOM
      1 C          60.4728   91.6398    4.0963 C.ar    1  UNL1        0.0594
      2 C          61.9006   91.2535    3.8474 C.ar    1  UNL1        0.0164
      3 C          62.7207   92.0156    2.8491 C.ar    1  UNL1        0.0181
      4 C          62.1129   93.1641    2.0997 C.ar    1  UNL1        0.0758
      5 C          60.6851   93.5504    2.3485 C.ar    1  UNL1        0.1546
      6 F          60.0774   94.6989    1.5991 F       1  UNL1       -0.2028
      7 C          59.8650   92.7883    3.3468 C.ar    1  UNL1        0.0459
      8 N          62.9331   93.9262    1.1014 N.pl3   1  UNL1       -0.3023
      9 C          62.4656   94.0449   -0.3189 C.3     1  UNL1        0.1124
     10 C          63.2858   94.8071   -1.3173 C.3     1  UNL1        0.1149
     11 N          64.5734   95.4504   -0.8952 N.am    1  UNL1       -0.2740
     12 C          65.3936   96.2125   -1.8934 C.2     1  UNL1        0.2557
     13 O          66.6812   96.8558   -1.4714 O.2     1  UNL1       -0.2722
     14 C          65.0409   95.3316    0.5252 C.3     1  UNL1        0.1149
     15 C          64.2207   94.5695    1.5234 C.3     1  UNL1        0.1124
     16 C          64.9261   96.3312   -3.3137 C.3     1  UNL1        0.2232
     17 O          65.0275   95.1538   -4.2376 O.3     1  UNL1       -0.3737
     18 H          65.9617   94.9430   -4.3914 H       1  UNL1        0.2110
     19 C          58.9885   89.2856    6.8019 C.3     1  UNL1        0.2100
     20 C          60.1379   89.7513    5.9582 C.3     1  UNL1        0.1468
     21 N          59.6526   90.8777    5.0946 N.am    1  UNL1       -0.2212
     22 C          58.2032   91.1082    5.4046 C.2     1  UNL1        0.4088
     23 O          57.3194   92.1412    4.7707 O.2     1  UNL1       -0.2258
     24 O          57.7927   90.1242    6.4597 O.3     1  UNL1       -0.4345
     25 C          59.0278   88.1762    7.8106 C.3     1  UNL1        0.1352
     26 C          62.1498   85.8594    8.6080 C.3     1  UNL1        0.0946
     27 C          60.8349   86.3259    8.0571 C.2     1  UNL1        0.2231
     28 O          60.0123   85.4085    7.2017 O.2     1  UNL1       -0.2751
     29 N          60.3427   87.7097    8.3615 N.am    1  UNL1       -0.3011
     30 H          60.8826   88.3118    8.9230 H       1  UNL1        0.1495
@<TRIPOS>BOND
     1    26    27    1
     2    27    28    2
     3    27    29   am
     4    29    25    1
     5    19    25    1
     6    19    20    1
     7    20    21    1
     8    21     1    1
     9     1     2   ar
    10     2     3   ar
    11     3     4   ar
    12     4     8    1
    13     8     9    1
    14     9    10    1
    15    10    11    1
    16    11    12   am
    17    12    13    2
    18    12    16    1
    19    16    17    1
    20    11    14    1
    21    14    15    1
    22     4     5   ar
    23     5     6    1
    24     5     7   ar
    25    21    22   am
    26    22    23    2
    27    22    24    1
    28    24    19    1
    29     7     1   ar
    30    15     8    1
    31    29    30    1
    32    17    18    1
@<TRIPOS>MOLECULE
*****
 30 32 0 0 0
SMALL
GASTEIGER

@<TRIPOS>ATOM
      1 C          72.5282   78.1729   11.2772 C.ar    1  UNL1        0.0594
      2 C          73.5450   77.0701   11.2731 C.ar    1  UNL1        0.0164
      3 C          73.3424   75.8600   12.1360 C.ar    1  UNL1        0.0181
      4 C          72.1232   75.7528   13.0032 C.ar    1  UNL1        0.0758
      5 C          71.1065   76.8556   13.0074 C.ar    1  UNL1        0.1546
      6 F          69.8872   76.7484   13.8745 F       1  UNL1       -0.2028
      7 C          71.3090   78.0656   12.1444 C.ar    1  UNL1        0.0459
      8 N          71.9207   74.5427   13.8662 N.pl3   1  UNL1       -0.3023
      9 C          71.7981   74.6942   15.3535 C.3     1  UNL1        0.1124
     10 C          71.5956   73.4841   16.2165 C.3     1  UNL1        0.1149
     11 N          71.5158   72.1225   15.5921 N.am    1  UNL1       -0.2740
     12 C          71.3133   70.9124   16.4551 C.2     1  UNL1        0.2557
     13 O          71.2335   69.5509   15.8307 O.2     1  UNL1       -0.2722
     14 C          71.6384   71.9711   14.1048 C.3     1  UNL1        0.1149
     15 C          71.8409   73.1811   13.2419 C.3     1  UNL1        0.1124
     16 C          71.1906   71.0639   17.9423 C.3     1  UNL1        0.2232
     17 O          69.8769   71.4572   18.5504 O.3     1  UNL1       -0.3737
     18 H          69.6510   72.3597   18.2761 H       1  UNL1        0.2110
     19 C          72.8020   80.8596    8.4893 C.3     1  UNL1        0.2100
     20 C          72.4610   79.4706    8.9413 C.3     1  UNL1        0.1468
     21 N          72.7307   79.3830   10.4142 N.am    1  UNL1       -0.2212
     22 C          73.2384   80.7179   10.8727 C.2     1  UNL1        0.4088
     23 O          73.6329   81.0772   12.2745 O.2     1  UNL1       -0.2258
     24 O          73.2825   81.6305    9.6830 O.3     1  UNL1       -0.4345
     25 C          72.6834   81.3854    7.0895 C.3     1  UNL1        0.1352
     26 C          69.7832   79.9136    4.8152 C.3     1  UNL1        0.0946
     27 C          71.0836   80.0324    5.5533 C.2     1  UNL1        0.2231
     28 O          72.0846   78.9169    5.4934 O.2     1  UNL1       -0.2751
     29 N          71.3830   81.2666    6.3514 N.am    1  UNL1       -0.3011
     30 H          70.7259   81.9987    6.3908 H       1  UNL1        0.1495
@<TRIPOS>BOND
     1    26    27    1
     2    27    28    2
     3    27    29   am
     4    29    25    1
     5    19    25    1
     6    19    20    1
     7    20    21    1
     8    21     1    1
     9     1     2   ar
    10     2     3   ar
    11     3     4   ar
    12     4     8    1
    13     8     9    1
    14     9    10    1
    15    10    11    1
    16    11    12   am
    17    12    13    2
    18    12    16    1
    19    16    17    1
    20    11    14    1
    21    14    15    1
    22     4     5   ar
    23     5     6    1
    24     5     7   ar
    25    21    22   am
    26    22    23    2
    27    22    24    1
    28    24    19    1
    29     7     1   ar
    30    15     8    1
    31    29    30    1
    32    17    18    1
@<TRIPOS>MOLECULE
*****
 30 32 0 0 0
SMALL
GASTEIGER

@<TRIPOS>ATOM
      1 C          64.1492   88.9820   13.2332 C.ar    1  UNL1        0.0594
      2 C          63.3288   88.4063   12.1172 C.ar    1  UNL1        0.0164
      3 C          62.9601   86.9524   12.1302 C.ar    1  UNL1        0.0181
      4 C          63.4118   86.0743   13.2593 C.ar    1  UNL1        0.0758
      5 C          64.2322   86.6500   14.3753 C.ar    1  UNL1        0.1546
      6 F          64.6838   85.7718   15.5043 F       1  UNL1       -0.2028
      7 C          64.6009   88.1038   14.3622 C.ar    1  UNL1        0.0459
      8 N          63.0430   84.6203   13.2723 N.pl3   1  UNL1       -0.3023
      9 C          62.1441   84.0841   14.3468 C.3     1  UNL1        0.1124
     10 C          61.7754   82.6302   14.3598 C.3     1  UNL1        0.1149
     11 N          62.3055   81.7124   13.2984 N.am    1  UNL1       -0.2740
     12 C          61.9368   80.2586   13.3114 C.2     1  UNL1        0.2557
     13 O          62.4670   79.3408   12.2499 O.2     1  UNL1       -0.2722
     14 C          63.2045   82.2487   12.2239 C.3     1  UNL1        0.1149
     15 C          63.5732   83.7026   12.2109 C.3     1  UNL1        0.1124
     16 C          61.0379   79.7224   14.3858 C.3     1  UNL1        0.2232
     17 O          59.5952   80.1307   14.4296 O.3     1  UNL1       -0.3737
     18 H          59.5333   81.0789   14.6244 H       1  UNL1        0.2110
     19 C          65.5560   92.5591   13.7729 C.3     1  UNL1        0.2100
     20 C          65.4960   91.1058   14.1392 C.3     1  UNL1        0.1468
     21 N          64.5179   90.4360   13.2201 N.am    1  UNL1       -0.2212
     22 C          63.9733   91.4754   12.2857 C.2     1  UNL1        0.4088
     23 O          62.9644   91.2434   11.2003 O.2     1  UNL1       -0.2258
     24 O          64.6149   92.7875   12.6273 O.3     1  UNL1       -0.4345
     25 C          66.4075   93.6011   14.4357 C.3     1  UNL1        0.1352
     26 C          69.4655   92.3173   16.6153 C.3     1  UNL1        0.0946
     27 C          68.6255   92.6801   15.4266 C.2     1  UNL1        0.2231
     28 O          69.1638   92.4848   14.0402 O.2     1  UNL1       -0.2751
     29 N          67.2474   93.2383   15.6244 N.am    1  UNL1       -0.3011
     30 H          66.8941   93.3665   16.5343 H       1  UNL1        0.1495
@<TRIPOS>BOND
     1    26    27    1
     2    27    28    2
     3    27    29   am
     4    29    25    1
     5    19    25    1
     6    19    20    1
     7    20    21    1
     8    21     1    1
     9     1     2   ar
    10     2     3   ar
    11     3     4   ar
    12     4     8    1
    13     8     9    1
    14     9    10    1
    15    10    11    1
    16    11    12   am
    17    12    13    2
    18    12    16    1
    19    16    17    1
    20    11    14    1
    21    14    15    1
    22     4     5   ar
    23     5     6    1
    24     5     7   ar
    25    21    22   am
    26    22    23    2
    27    22    24    1
    28    24    19    1
    29     7     1   ar
    30    15     8    1
    31    29    30    1
    32    17    18    1
@<TRIPOS>MOLECULE
*****
 30 32 0 0 0
SMALL
GASTEIGER

@<TRIPOS>ATOM
      1 C          59.1704   94.1488   -0.0244 C.ar    1  UNL1        0.0594
      2 C          58.9326   95.5873   -0.3767 C.ar    1  UNL1        0.0164
      3 C          57.7431   95.9694   -1.2067 C.ar    1  UNL1        0.0181
      4 C          56.7912   94.9131   -1.6843 C.ar    1  UNL1        0.0758
      5 C          57.0289   93.4746   -1.3319 C.ar    1  UNL1        0.1546
      6 F          56.0771   92.4182   -1.8095 F       1  UNL1       -0.2028
      7 C          58.2185   93.0925   -0.5020 C.ar    1  UNL1        0.0459
      8 N          55.6016   95.2953   -2.5142 N.pl3   1  UNL1       -0.3023
      9 C          54.2485   95.4109   -1.8771 C.3     1  UNL1        0.1124
     10 C          53.0589   95.7931   -2.7071 C.3     1  UNL1        0.1149
     11 N          53.2224   96.0597   -4.1741 N.am    1  UNL1       -0.2740
     12 C          52.0329   96.4419   -5.0041 C.2     1  UNL1        0.2557
     13 O          52.1963   96.7085   -6.4711 O.2     1  UNL1       -0.2722
     14 C          54.5755   95.9441   -4.8112 C.3     1  UNL1        0.1149
     15 C          55.7651   95.5619   -3.9813 C.3     1  UNL1        0.1124
     16 C          50.6798   96.5574   -4.3670 C.3     1  UNL1        0.2232
     17 O          49.4869   95.9240   -5.0196 O.3     1  UNL1       -0.3737
     18 H          49.3072   96.3666   -5.8639 H       1  UNL1        0.2110
     19 C          62.6464   93.4744    1.5656 C.3     1  UNL1        0.2100
     20 C          61.7966   94.0207    0.4569 C.3     1  UNL1        0.1468
     21 N          60.3600   93.7666    0.8056 N.am    1  UNL1       -0.2212
     22 C          60.3219   93.0633    2.1299 C.2     1  UNL1        0.4088
     23 O          59.0874   92.6186    2.8568 O.2     1  UNL1       -0.2258
     24 O          61.7349   92.8827    2.5997 O.3     1  UNL1       -0.4345
     25 C          64.1445   93.5130    1.6293 C.3     1  UNL1        0.1352
     26 C          65.6012   96.8473    3.2139 C.3     1  UNL1        0.0946
     27 C          64.9147   95.9120    2.2631 C.2     1  UNL1        0.2231
     28 O          64.3120   96.4404    0.9952 O.2     1  UNL1       -0.2751
     29 N          64.8310   94.4483    2.5801 N.am    1  UNL1       -0.3011
     30 H          65.2265   94.1014    3.4123 H       1  UNL1        0.1495
@<TRIPOS>BOND
     1    26    27    1
     2    27    28    2
     3    27    29   am
     4    29    25    1
     5    19    25    1
     6    19    20    1
     7    20    21    1
     8    21     1    1
     9     1     2   ar
    10     2     3   ar
    11     3     4   ar
    12     4     8    1
    13     8     9    1
    14     9    10    1
    15    10    11    1
    16    11    12   am
    17    12    13    2
    18    12    16    1
    19    16    17    1
    20    11    14    1
    21    14    15    1
    22     4     5   ar
    23     5     6    1
    24     5     7   ar
    25    21    22   am
    26    22    23    2
    27    22    24    1
    28    24    19    1
    29     7     1   ar
    30    15     8    1
    31    29    30    1
    32    17    18    1
@<TRIPOS>MOLECULE
*****
 30 32 0 0 0
SMALL
GASTEIGER

@<TRIPOS>ATOM
      1 C          59.6793   94.6778   -1.7878 C.ar    1  UNL1        0.0594
      2 C          59.4289   95.8421   -2.6996 C.ar    1  UNL1        0.0164
      3 C          58.0368   96.1374   -3.1739 C.ar    1  UNL1        0.0181
      4 C          56.8952   95.2684   -2.7363 C.ar    1  UNL1        0.0758
      5 C          57.1456   94.1040   -1.8245 C.ar    1  UNL1        0.1546
      6 F          56.0040   93.2350   -1.3869 F       1  UNL1       -0.2028
      7 C          58.5377   93.8087   -1.3502 C.ar    1  UNL1        0.0459
      8 N          55.5031   95.5637   -3.2107 N.pl3   1  UNL1       -0.3023
      9 C          55.2118   95.6398   -4.6801 C.3     1  UNL1        0.1124
     10 C          53.8197   95.9351   -5.1544 C.3     1  UNL1        0.1149
     11 N          52.7190   96.1544   -4.1593 N.am    1  UNL1       -0.2740
     12 C          51.3269   96.4498   -4.6335 C.2     1  UNL1        0.2557
     13 O          50.2262   96.6691   -3.6383 O.2     1  UNL1       -0.2722
     14 C          53.0104   96.0784   -2.6897 C.3     1  UNL1        0.1149
     15 C          54.4024   95.7830   -2.2155 C.3     1  UNL1        0.1124
     16 C          51.0356   96.5258   -6.1029 C.3     1  UNL1        0.2232
     17 O          50.6860   95.2811   -6.8637 O.3     1  UNL1       -0.3737
     18 H          51.4523   94.6866   -6.8807 H       1  UNL1        0.2110
     19 C          63.0078   94.0879    0.1198 C.3     1  UNL1        0.2100
     20 C          61.5568   94.4677    0.1033 C.3     1  UNL1        0.1468
     21 N          61.0714   94.3824   -1.3135 N.am    1  UNL1       -0.2212
     22 C          62.2224   93.9500   -2.1726 C.2     1  UNL1        0.4088
     23 O          62.1835   93.7369   -3.6568 O.2     1  UNL1       -0.2258
     24 O          63.4192   93.7680   -1.2868 O.3     1  UNL1       -0.4345
     25 C          63.8922   94.0371    1.3303 C.3     1  UNL1        0.1352
     26 C          63.5969   90.6087    3.3075 C.3     1  UNL1        0.0946
     27 C          63.2315   91.9309    2.7005 C.2     1  UNL1        0.2231
     28 O          61.8402   92.4691    2.8569 O.2     1  UNL1       -0.2751
     29 N          64.2575   92.7149    1.9372 N.am    1  UNL1       -0.3011
     30 H          65.1707   92.3616    1.8345 H       1  UNL1        0.1495
@<TRIPOS>BOND
     1    26    27    1
     2    27    28    2
     3    27    29   am
     4    29    25    1
     5    19    25    1
     6    19    20    1
     7    20    21    1
     8    21     1    1
     9     1     2   ar
    10     2     3   ar
    11     3     4   ar
    12     4     8    1
    13     8     9    1
    14     9    10    1
    15    10    11    1
    16    11    12   am
    17    12    13    2
    18    12    16    1
    19    16    17    1
    20    11    14    1
    21    14    15    1
    22     4     5   ar
    23     5     6    1
    24     5     7   ar
    25    21    22   am
    26    22    23    2
    27    22    24    1
    28    24    19    1
    29     7     1   ar
    30    15     8    1
    31    29    30    1
    32    17    18    1
@<TRIPOS>MOLECULE
*****
 30 32 0 0 0
SMALL
GASTEIGER

@<TRIPOS>ATOM
      1 C          44.7606   75.5272   19.3667 C.ar    1  UNL1        0.0594
      2 C          45.6346   74.3910   19.8085 C.ar    1  UNL1        0.0164
      3 C          45.8857   73.2353   18.8858 C.ar    1  UNL1        0.0181
      4 C          45.2629   73.2159   17.5214 C.ar    1  UNL1        0.0758
      5 C          44.3890   74.3521   17.0796 C.ar    1  UNL1        0.1546
      6 F          43.7662   74.3327   15.7151 F       1  UNL1       -0.2028
      7 C          44.1379   75.5077   18.0023 C.ar    1  UNL1        0.0459
      8 N          45.5141   72.0602   16.5987 N.pl3   1  UNL1       -0.3023
      9 C          45.1450   72.1643   15.1485 C.3     1  UNL1        0.1124
     10 C          45.3962   71.0085   14.2258 C.3     1  UNL1        0.1149
     11 N          46.0165   69.7488   14.7533 N.am    1  UNL1       -0.2740
     12 C          46.2677   68.5931   13.8307 C.2     1  UNL1        0.2557
     13 O          46.8880   67.3334   14.3582 O.2     1  UNL1       -0.2722
     14 C          46.3856   69.6448   16.2035 C.3     1  UNL1        0.1149
     15 C          46.1344   70.8004   17.1262 C.3     1  UNL1        0.1124
     16 C          45.8986   68.6972   12.3806 C.3     1  UNL1        0.2232
     17 O          44.5005   68.3816   11.9380 O.3     1  UNL1       -0.3737
     18 H          44.3199   67.4398   12.0843 H       1  UNL1        0.2110
     19 C          44.3503   78.9368   21.1756 C.3     1  UNL1        0.2100
     20 C          44.7297   78.1315   19.9683 C.3     1  UNL1        0.1468
     21 N          44.5095   76.6829   20.2894 N.am    1  UNL1       -0.2212
     22 C          43.9940   76.5929   21.6952 C.2     1  UNL1        0.4088
     23 O          43.6391   75.3315   22.4251 O.2     1  UNL1       -0.2258
     24 O          43.8956   77.9859   22.2429 O.3     1  UNL1       -0.4345
     25 C          44.4143   80.4307   21.2947 C.3     1  UNL1        0.1352
     26 C          47.3043   82.2713   19.2921 C.3     1  UNL1        0.0946
     27 C          46.0233   81.5495   19.5890 C.2     1  UNL1        0.2231
     28 O          45.0704   81.2246   18.4771 O.2     1  UNL1       -0.2751
     29 N          45.6953   81.1525   20.9978 N.am    1  UNL1       -0.3011
     30 H          46.3207   81.3657   21.7276 H       1  UNL1        0.1495
@<TRIPOS>BOND
     1    26    27    1
     2    27    28    2
     3    27    29   am
     4    29    25    1
     5    19    25    1
     6    19    20    1
     7    20    21    1
     8    21     1    1
     9     1     2   ar
    10     2     3   ar
    11     3     4   ar
    12     4     8    1
    13     8     9    1
    14     9    10    1
    15    10    11    1
    16    11    12   am
    17    12    13    2
    18    12    16    1
    19    16    17    1
    20    11    14    1
    21    14    15    1
    22     4     5   ar
    23     5     6    1
    24     5     7   ar
    25    21    22   am
    26    22    23    2
    27    22    24    1
    28    24    19    1
    29     7     1   ar
    30    15     8    1
    31    29    30    1
    32    17    18    1
