@<TRIPOS>MOLECULE
*****
 40 44 0 0 0
SMALL
GASTEIGER

@<TRIPOS>ATOM
      1 C          60.3326   94.4581   -0.6111 C.ar    1  UNL1        0.0768
      2 N          61.7652   94.0616   -0.8124 N.ar    1  UNL1       -0.2480
      3 C          62.2887   93.8187   -2.1970 C.ar    1  UNL1        0.0812
      4 C          63.7213   93.4222   -2.3983 C.ar    1  UNL1        0.0214
      5 C          64.2447   93.1794   -3.7828 C.ar    1  UNL1        0.0312
      6 C          63.3357   93.3330   -4.9660 C.ar    1  UNL1        0.1402
      7 F          63.8592   93.0901   -6.3506 F       1  UNL1       -0.2042
      8 C          61.9031   93.7295   -4.7647 C.ar    1  UNL1        0.0313
      9 C          61.3797   93.9724   -3.3802 C.ar    1  UNL1        0.0243
     10 C          59.9471   94.3689   -3.1788 C.ar    1  UNL1        0.0563
     11 C          59.4236   94.6118   -1.7943 C.ar    1  UNL1        0.0196
     12 C          59.0380   94.5226   -4.3621 C.2     1  UNL1        0.2492
     13 O          59.0861   95.7742   -5.1873 O.2     1  UNL1       -0.2699
     14 N          58.0808   93.4245   -4.7200 N.am    1  UNL1       -0.2710
     15 C          57.7554   92.0744   -4.1532 C.3     1  UNL1        0.1247
     16 C          56.7271   91.8717   -5.2263 C.3     1  UNL1        0.1500
     17 O          55.7699   90.7737   -5.5843 O.3     1  UNL1       -0.3810
     18 C          57.0525   93.2219   -5.7931 C.3     1  UNL1        0.1247
     19 H          55.8666   90.0424   -4.9545 H       1  UNL1        0.2105
     20 C          57.9910   95.0083   -1.5930 C.ar    1  UNL1        0.0013
     21 C          57.6124   96.4593   -1.5565 C.ar    1  UNL1        0.0000
     22 C          56.1799   96.8559   -1.3552 C.ar    1  UNL1        0.0000
     23 C          55.1259   95.8015   -1.1903 C.ar    1  UNL1        0.0000
     24 C          55.5045   94.3505   -1.2267 C.ar    1  UNL1        0.0000
     25 C          56.9370   93.9539   -1.4281 C.ar    1  UNL1        0.0000
     26 C          59.7112   96.1009    1.3034 C.3     1  UNL1        0.0278
     27 C          59.8091   94.7010    0.7735 C.3     1  UNL1        0.1109
     28 N          59.3834   93.5441    1.6280 N.pl3   1  UNL1       -0.3142
     29 H          58.4351   93.2822    1.6651 H       1  UNL1        0.1485
     30 C          60.4025   92.7863    2.4261 C.ar    1  UNL1        0.1429
     31 N          61.8309   92.7421    1.9699 N.ar    1  UNL1       -0.2084
     32 C          62.8500   91.9843    2.7680 C.ar    1  UNL1        0.2012
     33 N          62.4409   91.2706    4.0222 N.ar    1  UNL1       -0.2087
     34 C          61.0127   91.3147    4.4785 C.ar    1  UNL1        0.1396
     35 N          60.6036   90.6010    5.7328 N.pl3   1  UNL1       -0.3420
     36 C          59.9935   92.0726    3.6804 C.ar    1  UNL1        0.1308
     37 H          61.2726   90.1036    6.2566 H       1  UNL1        0.1437
     38 H          59.6662   90.6299    6.0322 H       1  UNL1        0.1437
     39 C          58.5652   92.1167    4.1366 C.1     1  UNL1        0.1061
     40 N          57.1370   92.1608    4.5928 N.1     1  UNL1       -0.1906
@<TRIPOS>BOND
     1    27    26    1
     2    27    28    1
     3    28    30    1
     4    30    31   ar
     5    31    32   ar
     6    32    33   ar
     7    33    34   ar
     8    34    35    1
     9    34    36   ar
    10    36    39    1
    11    39    40    3
    12    27     1    1
    13     1     2   ar
    14     2     3   ar
    15     3     4   ar
    16     4     5   ar
    17     5     6   ar
    18     6     7    1
    19     6     8   ar
    20     8     9   ar
    21     9    10   ar
    22    10    12    1
    23    12    13    2
    24    12    14   am
    25    14    15    1
    26    15    16    1
    27    16    17    1
    28    16    18    1
    29    10    11   ar
    30    11    20    1
    31    20    21   ar
    32    21    22   ar
    33    22    23   ar
    34    23    24   ar
    35    24    25   ar
    36    36    30   ar
    37    11     1   ar
    38    25    20   ar
    39     9     3   ar
    40    18    14    1
    41    28    29    1
    42    35    37    1
    43    35    38    1
    44    17    19    1
@<TRIPOS>MOLECULE
*****
 40 44 0 0 0
SMALL
GASTEIGER

@<TRIPOS>ATOM
      1 C          59.8555   93.8119   -1.5168 C.ar    1  UNL1        0.0768
      2 N          61.2431   93.4086   -1.9192 N.ar    1  UNL1       -0.2480
      3 C          61.7217   93.6618   -3.3181 C.ar    1  UNL1        0.0812
      4 C          63.1093   93.2584   -3.7206 C.ar    1  UNL1        0.0214
      5 C          63.5879   93.5116   -5.1194 C.ar    1  UNL1        0.0312
      6 C          62.6789   94.1682   -6.1158 C.ar    1  UNL1        0.1402
      7 F          63.1576   94.4213   -7.5147 F       1  UNL1       -0.2042
      8 C          61.2914   94.5715   -5.7134 C.ar    1  UNL1        0.0313
      9 C          60.8128   94.3183   -4.3145 C.ar    1  UNL1        0.0243
     10 C          59.4252   94.7216   -3.9120 C.ar    1  UNL1        0.0563
     11 C          58.9466   94.4684   -2.5132 C.ar    1  UNL1        0.0196
     12 C          58.5162   95.3781   -4.9084 C.2     1  UNL1        0.2492
     13 O          58.6092   96.8558   -5.1487 O.2     1  UNL1       -0.2699
     14 N          57.5142   94.5568   -5.6646 N.am    1  UNL1       -0.2710
     15 C          57.1388   93.1049   -5.6944 C.3     1  UNL1        0.1247
     16 C          56.0972   93.3955   -6.7339 C.3     1  UNL1        0.1500
     17 O          55.0953   92.5744   -7.4900 O.3     1  UNL1       -0.3810
     18 C          56.4726   94.8475   -6.7041 C.3     1  UNL1        0.1247
     19 H          55.1666   91.6461   -7.2177 H       1  UNL1        0.2105
     20 C          57.5589   94.8717   -2.1107 C.ar    1  UNL1        0.0013
     21 C          57.3104   96.2365   -1.5402 C.ar    1  UNL1        0.0000
     22 C          55.9229   96.6399   -1.1377 C.ar    1  UNL1        0.0000
     23 C          54.7839   95.6784   -1.3057 C.ar    1  UNL1        0.0000
     24 C          55.0325   94.3135   -1.8762 C.ar    1  UNL1        0.0000
     25 C          56.4200   93.9102   -2.2787 C.ar    1  UNL1        0.0000
     26 C          58.1443   92.7363    0.1157 C.3     1  UNL1        0.0278
     27 C          59.3769   93.5587   -0.1179 C.3     1  UNL1        0.1109
     28 N          60.1307   94.1279    1.0473 N.pl3   1  UNL1       -0.3142
     29 H          60.3138   95.0942    1.0905 H       1  UNL1        0.1485
     30 C          60.6056   93.2247    2.1467 C.ar    1  UNL1        0.1429
     31 N          59.6724   92.8382    3.2557 N.ar    1  UNL1       -0.2084
     32 C          60.1473   91.9350    4.3550 C.ar    1  UNL1        0.2012
     33 N          61.5555   91.4182    4.3455 N.ar    1  UNL1       -0.2087
     34 C          62.4887   91.8046    3.2365 C.ar    1  UNL1        0.1396
     35 N          63.8968   91.2878    3.2269 N.pl3   1  UNL1       -0.3420
     36 C          62.0138   92.7078    2.1371 C.ar    1  UNL1        0.1308
     37 H          64.2085   90.6950    3.9485 H       1  UNL1        0.1437
     38 H          64.5093   91.5414    2.4990 H       1  UNL1        0.1437
     39 C          62.9469   93.0942    1.0281 C.1     1  UNL1        0.1061
     40 N          63.8801   93.4806   -0.0808 N.1     1  UNL1       -0.1906
@<TRIPOS>BOND
     1    27    26    1
     2    27    28    1
     3    28    30    1
     4    30    31   ar
     5    31    32   ar
     6    32    33   ar
     7    33    34   ar
     8    34    35    1
     9    34    36   ar
    10    36    39    1
    11    39    40    3
    12    27     1    1
    13     1     2   ar
    14     2     3   ar
    15     3     4   ar
    16     4     5   ar
    17     5     6   ar
    18     6     7    1
    19     6     8   ar
    20     8     9   ar
    21     9    10   ar
    22    10    12    1
    23    12    13    2
    24    12    14   am
    25    14    15    1
    26    15    16    1
    27    16    17    1
    28    16    18    1
    29    10    11   ar
    30    11    20    1
    31    20    21   ar
    32    21    22   ar
    33    22    23   ar
    34    23    24   ar
    35    24    25   ar
    36    36    30   ar
    37    11     1   ar
    38    25    20   ar
    39     9     3   ar
    40    18    14    1
    41    28    29    1
    42    35    37    1
    43    35    38    1
    44    17    19    1
@<TRIPOS>MOLECULE
*****
 40 44 0 0 0
SMALL
GASTEIGER

@<TRIPOS>ATOM
      1 C          63.5638   87.5395   13.2980 C.ar    1  UNL1        0.0768
      2 N          64.1752   86.2757   13.8261 N.ar    1  UNL1       -0.2480
      3 C          63.8550   84.9605   13.1796 C.ar    1  UNL1        0.0812
      4 C          64.4664   83.6967   13.7077 C.ar    1  UNL1        0.0214
      5 C          64.1462   82.3816   13.0612 C.ar    1  UNL1        0.0312
      6 C          63.2146   82.3303   11.8867 C.ar    1  UNL1        0.1402
      7 F          62.8944   81.0151   11.2402 F       1  UNL1       -0.2042
      8 C          62.6032   83.5942   11.3586 C.ar    1  UNL1        0.0313
      9 C          62.9234   84.9092   12.0051 C.ar    1  UNL1        0.0243
     10 C          62.3120   86.1732   11.4770 C.ar    1  UNL1        0.0563
     11 C          62.6322   87.4883   12.1235 C.ar    1  UNL1        0.0196
     12 C          61.3805   86.1219   10.3025 C.2     1  UNL1        0.2492
     13 O          59.9533   86.5568   10.4577 O.2     1  UNL1       -0.2699
     14 N          61.8761   85.6358    8.9728 N.am    1  UNL1       -0.2710
     15 C          63.1895   85.1355    8.4487 C.3     1  UNL1        0.1247
     16 C          62.5769   84.9484    7.0923 C.3     1  UNL1        0.1500
     17 O          63.0725   84.4623    5.7626 O.3     1  UNL1       -0.3810
     18 C          61.2635   85.4487    7.6164 C.3     1  UNL1        0.1247
     19 H          64.0096   84.2225    5.8348 H       1  UNL1        0.2105
     20 C          62.0209   88.7522   11.5955 C.ar    1  UNL1        0.0013
     21 C          60.7570   89.2847   12.2030 C.ar    1  UNL1        0.0000
     22 C          60.1456   90.5486   11.6750 C.ar    1  UNL1        0.0000
     23 C          60.7981   91.2799   10.5395 C.ar    1  UNL1        0.0000
     24 C          62.0619   90.7473    9.9320 C.ar    1  UNL1        0.0000
     25 C          62.6733   89.4835   10.4599 C.ar    1  UNL1        0.0000
     26 C          63.7558   89.0107   15.4309 C.3     1  UNL1        0.0278
     27 C          63.8840   88.8547   13.9445 C.3     1  UNL1        0.1109
     28 N          64.3325   90.0138   13.1047 N.pl3   1  UNL1       -0.3142
     29 H          64.1235   90.0347   12.1428 H       1  UNL1        0.1485
     30 C          65.0992   91.1410   13.7303 C.ar    1  UNL1        0.1429
     31 N          65.4595   91.0863   15.1854 N.ar    1  UNL1       -0.2084
     32 C          66.2262   92.2135   15.8111 C.ar    1  UNL1        0.2012
     33 N          66.6327   93.3954   14.9816 N.ar    1  UNL1       -0.2087
     34 C          66.2725   93.4501   13.5266 C.ar    1  UNL1        0.1396
     35 N          66.6790   94.6320   12.6972 N.pl3   1  UNL1       -0.3420
     36 C          65.5057   92.3228   12.9009 C.ar    1  UNL1        0.1308
     37 H          67.1822   95.3718   13.1078 H       1  UNL1        0.1437
     38 H          66.4426   94.6678   11.7422 H       1  UNL1        0.1437
     39 C          65.1455   92.3775   11.4459 C.1     1  UNL1        0.1061
     40 N          64.7852   92.4322    9.9908 N.1     1  UNL1       -0.1906
@<TRIPOS>BOND
     1    27    26    1
     2    27    28    1
     3    28    30    1
     4    30    31   ar
     5    31    32   ar
     6    32    33   ar
     7    33    34   ar
     8    34    35    1
     9    34    36   ar
    10    36    39    1
    11    39    40    3
    12    27     1    1
    13     1     2   ar
    14     2     3   ar
    15     3     4   ar
    16     4     5   ar
    17     5     6   ar
    18     6     7    1
    19     6     8   ar
    20     8     9   ar
    21     9    10   ar
    22    10    12    1
    23    12    13    2
    24    12    14   am
    25    14    15    1
    26    15    16    1
    27    16    17    1
    28    16    18    1
    29    10    11   ar
    30    11    20    1
    31    20    21   ar
    32    21    22   ar
    33    22    23   ar
    34    23    24   ar
    35    24    25   ar
    36    36    30   ar
    37    11     1   ar
    38    25    20   ar
    39     9     3   ar
    40    18    14    1
    41    28    29    1
    42    35    37    1
    43    35    38    1
    44    17    19    1
@<TRIPOS>MOLECULE
*****
 40 44 0 0 0
SMALL
GASTEIGER

@<TRIPOS>ATOM
      1 C          57.7936   95.6382   -1.2757 C.ar    1  UNL1        0.0768
      2 N          56.3730   95.8381   -0.8376 N.ar    1  UNL1       -0.2480
      3 C          55.2728   95.8796   -1.8564 C.ar    1  UNL1        0.0812
      4 C          53.8522   96.0794   -1.4184 C.ar    1  UNL1        0.0214
      5 C          52.7520   96.1209   -2.4371 C.ar    1  UNL1        0.0312
      6 C          53.0725   95.9625   -3.8939 C.ar    1  UNL1        0.1402
      7 F          51.9722   96.0040   -4.9127 F       1  UNL1       -0.2042
      8 C          54.4931   95.7627   -4.3320 C.ar    1  UNL1        0.0313
      9 C          55.5932   95.7212   -3.3132 C.ar    1  UNL1        0.0243
     10 C          57.0139   95.5213   -3.7512 C.ar    1  UNL1        0.0563
     11 C          58.1140   95.4798   -2.7325 C.ar    1  UNL1        0.0196
     12 C          57.3343   95.3629   -5.2080 C.2     1  UNL1        0.2492
     13 O          57.6603   96.5680   -6.0396 O.2     1  UNL1       -0.2699
     14 N          57.3289   93.9994   -5.8332 N.am    1  UNL1       -0.2710
     15 C          57.0611   92.6079   -5.3411 C.3     1  UNL1        0.1247
     16 C          57.3211   92.0711   -6.7174 C.3     1  UNL1        0.1500
     17 O          57.3157   90.7077   -7.3426 O.3     1  UNL1       -0.3810
     18 C          57.5889   93.4626   -7.2095 C.3     1  UNL1        0.1247
     19 H          57.0870   90.0453   -6.6719 H       1  UNL1        0.2105
     20 C          59.5347   95.2799   -3.1705 C.ar    1  UNL1        0.0013
     21 C          60.0778   93.8925   -3.3443 C.ar    1  UNL1        0.0000
     22 C          61.4984   93.6926   -3.7823 C.ar    1  UNL1        0.0000
     23 C          62.3759   94.8801   -4.0465 C.ar    1  UNL1        0.0000
     24 C          61.8329   96.2675   -3.8726 C.ar    1  UNL1        0.0000
     25 C          60.4123   96.4674   -3.4346 C.ar    1  UNL1        0.0000
     26 C          59.6338   96.8519    0.0994 C.3     1  UNL1        0.0278
     27 C          58.8938   95.5967   -0.2569 C.3     1  UNL1        0.1109
     28 N          59.2541   94.3000    0.4055 N.pl3   1  UNL1       -0.3142
     29 H          58.5447   93.6948    0.7212 H       1  UNL1        0.1485
     30 C          60.6952   93.9255    0.5868 C.ar    1  UNL1        0.1429
     31 N          61.7049   94.3016   -0.4568 N.ar    1  UNL1       -0.2084
     32 C          63.1460   93.9271   -0.2755 C.ar    1  UNL1        0.2012
     33 N          63.5775   93.1766    0.9494 N.ar    1  UNL1       -0.2087
     34 C          62.5679   92.8005    1.9931 C.ar    1  UNL1        0.1396
     35 N          62.9994   92.0500    3.2180 N.pl3   1  UNL1       -0.3420
     36 C          61.1267   93.1750    1.8118 C.ar    1  UNL1        0.1308
     37 H          63.9453   91.8042    3.3370 H       1  UNL1        0.1437
     38 H          62.3367   91.8032    3.9030 H       1  UNL1        0.1437
     39 C          60.1171   92.7990    2.8554 C.1     1  UNL1        0.1061
     40 N          59.1075   92.4229    3.8990 N.1     1  UNL1       -0.1906
@<TRIPOS>BOND
     1    27    26    1
     2    27    28    1
     3    28    30    1
     4    30    31   ar
     5    31    32   ar
     6    32    33   ar
     7    33    34   ar
     8    34    35    1
     9    34    36   ar
    10    36    39    1
    11    39    40    3
    12    27     1    1
    13     1     2   ar
    14     2     3   ar
    15     3     4   ar
    16     4     5   ar
    17     5     6   ar
    18     6     7    1
    19     6     8   ar
    20     8     9   ar
    21     9    10   ar
    22    10    12    1
    23    12    13    2
    24    12    14   am
    25    14    15    1
    26    15    16    1
    27    16    17    1
    28    16    18    1
    29    10    11   ar
    30    11    20    1
    31    20    21   ar
    32    21    22   ar
    33    22    23   ar
    34    23    24   ar
    35    24    25   ar
    36    36    30   ar
    37    11     1   ar
    38    25    20   ar
    39     9     3   ar
    40    18    14    1
    41    28    29    1
    42    35    37    1
    43    35    38    1
    44    17    19    1
@<TRIPOS>MOLECULE
*****
 40 44 0 0 0
SMALL
GASTEIGER

@<TRIPOS>ATOM
      1 C          63.1569   90.4491   11.8732 C.ar    1  UNL1        0.0768
      2 N          63.3370   91.4159   10.7407 N.ar    1  UNL1       -0.2480
      3 C          64.3223   92.5403   10.8638 C.ar    1  UNL1        0.0812
      4 C          64.5024   93.5071    9.7312 C.ar    1  UNL1        0.0214
      5 C          65.4876   94.6314    9.8544 C.ar    1  UNL1        0.0312
      6 C          66.2928   94.7889   11.1102 C.ar    1  UNL1        0.1402
      7 F          67.2780   95.9133   11.2333 F       1  UNL1       -0.2042
      8 C          66.1126   93.8221   12.2428 C.ar    1  UNL1        0.0313
      9 C          65.1274   92.6978   12.1196 C.ar    1  UNL1        0.0243
     10 C          64.9473   91.7309   13.2522 C.ar    1  UNL1        0.0563
     11 C          63.9620   90.6066   13.1290 C.ar    1  UNL1        0.0196
     12 C          65.7524   91.8884   14.5080 C.2     1  UNL1        0.2492
     13 O          65.0607   91.9793   15.8359 O.2     1  UNL1       -0.2699
     14 N          67.2492   91.9551   14.4358 N.am    1  UNL1       -0.2710
     15 C          68.2613   91.9008   13.3301 C.3     1  UNL1        0.1247
     16 C          69.3660   92.0493   14.3339 C.3     1  UNL1        0.1500
     17 O          70.8627   92.1159   14.2617 O.3     1  UNL1       -0.3810
     18 C          68.3539   92.1036   15.4396 C.3     1  UNL1        0.1247
     19 H          71.1454   92.0429   13.3367 H       1  UNL1        0.2105
     20 C          63.7819   89.6398   14.2617 C.ar    1  UNL1        0.0013
     21 C          63.0365   90.0588   15.4941 C.ar    1  UNL1        0.0000
     22 C          62.8563   89.0920   16.6267 C.ar    1  UNL1        0.0000
     23 C          63.4215   87.7062   16.5268 C.ar    1  UNL1        0.0000
     24 C          64.1668   87.2872   15.2944 C.ar    1  UNL1        0.0000
     25 C          64.3470   88.2539   14.1618 C.ar    1  UNL1        0.0000
     26 C          60.9284   89.3217   12.5894 C.3     1  UNL1        0.0278
     27 C          62.1716   89.3248   11.7501 C.3     1  UNL1        0.1109
     28 N          62.4296   88.2036   10.7877 N.pl3   1  UNL1       -0.3142
     29 H          63.2177   87.6254   10.9052 H       1  UNL1        0.1485
     30 C          61.4867   87.9632    9.6462 C.ar    1  UNL1        0.1429
     31 N          60.5629   89.0550    9.1937 N.ar    1  UNL1       -0.2084
     32 C          59.6200   88.8147    8.0522 C.ar    1  UNL1        0.2012
     33 N          59.6008   87.4825    7.3631 N.ar    1  UNL1       -0.2087
     34 C          60.5245   86.3907    7.8155 C.ar    1  UNL1        0.1396
     35 N          60.5053   85.0585    7.1263 N.pl3   1  UNL1       -0.3420
     36 C          61.4675   86.6310    8.9570 C.ar    1  UNL1        0.1308
     37 H          59.8864   84.9007    6.3771 H       1  UNL1        0.1437
     38 H          61.1115   84.3419    7.4232 H       1  UNL1        0.1437
     39 C          62.3911   85.5392    9.4094 C.1     1  UNL1        0.1061
     40 N          63.3148   84.4474    9.8618 N.1     1  UNL1       -0.1906
@<TRIPOS>BOND
     1    27    26    1
     2    27    28    1
     3    28    30    1
     4    30    31   ar
     5    31    32   ar
     6    32    33   ar
     7    33    34   ar
     8    34    35    1
     9    34    36   ar
    10    36    39    1
    11    39    40    3
    12    27     1    1
    13     1     2   ar
    14     2     3   ar
    15     3     4   ar
    16     4     5   ar
    17     5     6   ar
    18     6     7    1
    19     6     8   ar
    20     8     9   ar
    21     9    10   ar
    22    10    12    1
    23    12    13    2
    24    12    14   am
    25    14    15    1
    26    15    16    1
    27    16    17    1
    28    16    18    1
    29    10    11   ar
    30    11    20    1
    31    20    21   ar
    32    21    22   ar
    33    22    23   ar
    34    23    24   ar
    35    24    25   ar
    36    36    30   ar
    37    11     1   ar
    38    25    20   ar
    39     9     3   ar
    40    18    14    1
    41    28    29    1
    42    35    37    1
    43    35    38    1
    44    17    19    1
@<TRIPOS>MOLECULE
*****
 40 44 0 0 0
SMALL
GASTEIGER

@<TRIPOS>ATOM
      1 C          58.1766   95.6949   -1.3044 C.ar    1  UNL1        0.0768
      2 N          56.7792   95.8684   -0.7876 N.ar    1  UNL1       -0.2480
      3 C          55.6224   95.8810   -1.7426 C.ar    1  UNL1        0.0812
      4 C          54.2250   96.0545   -1.2258 C.ar    1  UNL1        0.0214
      5 C          53.0684   96.0670   -2.1808 C.ar    1  UNL1        0.0312
      6 C          53.3092   95.9061   -3.6526 C.ar    1  UNL1        0.1402
      7 F          52.1525   95.9187   -4.6076 F       1  UNL1       -0.2042
      8 C          54.7066   95.7326   -4.1694 C.ar    1  UNL1        0.0313
      9 C          55.8632   95.7200   -3.2144 C.ar    1  UNL1        0.0243
     10 C          57.2607   95.5465   -3.7312 C.ar    1  UNL1        0.0563
     11 C          58.4173   95.5340   -2.7762 C.ar    1  UNL1        0.0196
     12 C          57.5015   95.3856   -5.2029 C.2     1  UNL1        0.2492
     13 O          57.8052   96.5864   -6.0489 O.2     1  UNL1       -0.2699
     14 N          57.4386   94.0238   -5.8287 N.am    1  UNL1       -0.2710
     15 C          57.1718   92.6363   -5.3250 C.3     1  UNL1        0.1247
     16 C          57.3496   92.0979   -6.7137 C.3     1  UNL1        0.1500
     17 O          57.2866   90.7362   -7.3395 O.3     1  UNL1       -0.3810
     18 C          57.6164   93.4854   -7.2174 C.3     1  UNL1        0.1247
     19 H          57.0814   90.0766   -6.6586 H       1  UNL1        0.2105
     20 C          59.8148   95.3605   -3.2930 C.ar    1  UNL1        0.0013
     21 C          60.6528   96.5641   -3.6080 C.ar    1  UNL1        0.0000
     22 C          62.0502   96.3906   -4.1248 C.ar    1  UNL1        0.0000
     23 C          62.6097   95.0136   -4.3265 C.ar    1  UNL1        0.0000
     24 C          61.7717   93.8100   -4.0114 C.ar    1  UNL1        0.0000
     25 C          60.3743   93.9835   -3.4947 C.ar    1  UNL1        0.0000
     26 C          59.4926   96.7893    0.6502 C.3     1  UNL1        0.0278
     27 C          59.3333   95.6823   -0.3494 C.3     1  UNL1        0.1109
     28 N          60.3306   94.5628   -0.3941 N.pl3   1  UNL1       -0.3142
     29 H          60.7592   94.3191   -1.2462 H       1  UNL1        0.1485
     30 C          60.6749   93.8147    0.8596 C.ar    1  UNL1        0.1429
     31 N          59.6080   93.5133    1.8701 N.ar    1  UNL1       -0.2084
     32 C          59.9523   92.7651    3.1237 C.ar    1  UNL1        0.2012
     33 N          61.3634   92.3183    3.3670 N.ar    1  UNL1       -0.2087
     34 C          62.4302   92.6197    2.3566 C.ar    1  UNL1        0.1396
     35 N          63.8413   92.1730    2.5998 N.pl3   1  UNL1       -0.3420
     36 C          62.0860   93.3679    1.1028 C.ar    1  UNL1        0.1308
     37 H          64.0673   91.6819    3.4227 H       1  UNL1        0.1437
     38 H          64.5415   92.3708    1.9366 H       1  UNL1        0.1437
     39 C          63.1528   93.6693    0.0924 C.1     1  UNL1        0.1061
     40 N          64.2197   93.9707   -0.9180 N.1     1  UNL1       -0.1906
@<TRIPOS>BOND
     1    27    26    1
     2    27    28    1
     3    28    30    1
     4    30    31   ar
     5    31    32   ar
     6    32    33   ar
     7    33    34   ar
     8    34    35    1
     9    34    36   ar
    10    36    39    1
    11    39    40    3
    12    27     1    1
    13     1     2   ar
    14     2     3   ar
    15     3     4   ar
    16     4     5   ar
    17     5     6   ar
    18     6     7    1
    19     6     8   ar
    20     8     9   ar
    21     9    10   ar
    22    10    12    1
    23    12    13    2
    24    12    14   am
    25    14    15    1
    26    15    16    1
    27    16    17    1
    28    16    18    1
    29    10    11   ar
    30    11    20    1
    31    20    21   ar
    32    21    22   ar
    33    22    23   ar
    34    23    24   ar
    35    24    25   ar
    36    36    30   ar
    37    11     1   ar
    38    25    20   ar
    39     9     3   ar
    40    18    14    1
    41    28    29    1
    42    35    37    1
    43    35    38    1
    44    17    19    1
@<TRIPOS>MOLECULE
*****
 40 44 0 0 0
SMALL
GASTEIGER

@<TRIPOS>ATOM
      1 C          61.3233   95.4783    0.8607 C.ar    1  UNL1        0.0768
      2 N          62.6923   95.9363    1.2679 N.ar    1  UNL1       -0.2480
      3 C          63.7470   96.1662    0.2264 C.ar    1  UNL1        0.0812
      4 C          65.1161   96.6242    0.6337 C.ar    1  UNL1        0.0214
      5 C          66.1707   96.8541   -0.4079 C.ar    1  UNL1        0.0312
      6 C          65.8563   96.6260   -1.8567 C.ar    1  UNL1        0.1402
      7 F          66.9110   96.8559   -2.8983 F       1  UNL1       -0.2042
      8 C          64.4873   96.1680   -2.2640 C.ar    1  UNL1        0.0313
      9 C          63.4326   95.9381   -1.2224 C.ar    1  UNL1        0.0243
     10 C          62.0635   95.4801   -1.6297 C.ar    1  UNL1        0.0563
     11 C          61.0089   95.2502   -0.5882 C.ar    1  UNL1        0.0196
     12 C          61.7491   95.2519   -3.0785 C.2     1  UNL1        0.2492
     13 O          60.7340   96.1127   -3.7703 O.2     1  UNL1       -0.2699
     14 N          62.4499   94.1630   -3.8357 N.am    1  UNL1       -0.2710
     15 C          63.4882   93.1347   -3.4972 C.3     1  UNL1        0.1247
     16 C          63.4409   92.6231   -4.9064 C.3     1  UNL1        0.1500
     17 O          64.1417   91.5342   -5.6635 O.3     1  UNL1       -0.3810
     18 C          62.4026   93.6513   -5.2449 C.3     1  UNL1        0.1247
     19 H          64.7608   91.0768   -5.0732 H       1  UNL1        0.2105
     20 C          59.6397   94.7921   -0.9954 C.ar    1  UNL1        0.0013
     21 C          59.3975   93.3476   -1.3188 C.ar    1  UNL1        0.0000
     22 C          58.0285   92.8895   -1.7261 C.ar    1  UNL1        0.0000
     23 C          56.9017   93.8760   -1.8099 C.ar    1  UNL1        0.0000
     24 C          57.1439   95.3206   -1.4866 C.ar    1  UNL1        0.0000
     25 C          58.5130   95.7787   -1.0793 C.ar    1  UNL1        0.0000
     26 C          59.7337   96.4035    2.6957 C.3     1  UNL1        0.0278
     27 C          60.2685   95.2484    1.9022 C.3     1  UNL1        0.1109
     28 N          59.7487   93.8634    2.1502 N.pl3   1  UNL1       -0.3142
     29 H          58.8483   93.6128    1.8408 H       1  UNL1        0.1485
     30 C          60.6007   92.8603    2.8698 C.ar    1  UNL1        0.1429
     31 N          62.0312   92.6627    2.4640 N.ar    1  UNL1       -0.2084
     32 C          62.8832   91.6596    3.1836 C.ar    1  UNL1        0.2012
     33 N          62.3047   90.8539    4.3088 N.ar    1  UNL1       -0.2087
     34 C          60.8742   91.0514    4.7145 C.ar    1  UNL1        0.1396
     35 N          60.2957   90.2457    5.8398 N.pl3   1  UNL1       -0.3420
     36 C          60.0222   92.0546    3.9950 C.ar    1  UNL1        0.1308
     37 H          60.8549   89.5873    6.3121 H       1  UNL1        0.1437
     38 H          59.3568   90.3753    6.1061 H       1  UNL1        0.1437
     39 C          58.5917   92.2520    4.4007 C.1     1  UNL1        0.1061
     40 N          57.1612   92.4495    4.8065 N.1     1  UNL1       -0.1906
@<TRIPOS>BOND
     1    27    26    1
     2    27    28    1
     3    28    30    1
     4    30    31   ar
     5    31    32   ar
     6    32    33   ar
     7    33    34   ar
     8    34    35    1
     9    34    36   ar
    10    36    39    1
    11    39    40    3
    12    27     1    1
    13     1     2   ar
    14     2     3   ar
    15     3     4   ar
    16     4     5   ar
    17     5     6   ar
    18     6     7    1
    19     6     8   ar
    20     8     9   ar
    21     9    10   ar
    22    10    12    1
    23    12    13    2
    24    12    14   am
    25    14    15    1
    26    15    16    1
    27    16    17    1
    28    16    18    1
    29    10    11   ar
    30    11    20    1
    31    20    21   ar
    32    21    22   ar
    33    22    23   ar
    34    23    24   ar
    35    24    25   ar
    36    36    30   ar
    37    11     1   ar
    38    25    20   ar
    39     9     3   ar
    40    18    14    1
    41    28    29    1
    42    35    37    1
    43    35    38    1
    44    17    19    1
@<TRIPOS>MOLECULE
*****
 40 44 0 0 0
SMALL
GASTEIGER

@<TRIPOS>ATOM
      1 C          62.8208   86.5204   11.6717 C.ar    1  UNL1        0.0768
      2 N          62.8966   88.0041   11.4648 N.ar    1  UNL1       -0.2480
      3 C          63.4958   88.8796   12.5253 C.ar    1  UNL1        0.0812
      4 C          63.5716   90.3633   12.3184 C.ar    1  UNL1        0.0214
      5 C          64.1708   91.2387   13.3789 C.ar    1  UNL1        0.0312
      6 C          64.6941   90.6304   14.6462 C.ar    1  UNL1        0.1402
      7 F          65.2933   91.5059   15.7067 F       1  UNL1       -0.2042
      8 C          64.6183   89.1467   14.8531 C.ar    1  UNL1        0.0313
      9 C          64.0191   88.2713   13.7926 C.ar    1  UNL1        0.0243
     10 C          63.9433   86.7875   13.9995 C.ar    1  UNL1        0.0563
     11 C          63.3441   85.9121   12.9390 C.ar    1  UNL1        0.0196
     12 C          64.4666   86.1792   15.2668 C.2     1  UNL1        0.2492
     13 O          65.6787   85.2963   15.2302 O.2     1  UNL1       -0.2699
     14 N          63.7779   86.4539   16.5707 N.am    1  UNL1       -0.2710
     15 C          62.5824   87.2568   16.9903 C.3     1  UNL1        0.1247
     16 C          62.8039   86.8422   18.4148 C.3     1  UNL1        0.1500
     17 O          62.1152   87.1168   19.7187 O.3     1  UNL1       -0.3810
     18 C          63.9994   86.0393   17.9952 C.3     1  UNL1        0.1247
     19 H          61.3558   87.7009   19.5666 H       1  UNL1        0.2105
     20 C          63.2683   84.4283   13.1458 C.ar    1  UNL1        0.0013
     21 C          64.3230   83.5350   12.5631 C.ar    1  UNL1        0.0000
     22 C          64.2472   82.0513   12.7699 C.ar    1  UNL1        0.0000
     23 C          63.1167   81.4609   13.5594 C.ar    1  UNL1        0.0000
     24 C          62.0620   82.3542   14.1422 C.ar    1  UNL1        0.0000
     25 C          62.1378   83.8379   13.9354 C.ar    1  UNL1        0.0000
     26 C          63.0556   84.5855    9.9537 C.3     1  UNL1        0.0278
     27 C          62.2216   85.6449   10.6112 C.3     1  UNL1        0.1109
     28 N          60.7885   85.8287   10.2083 N.pl3   1  UNL1       -0.3142
     29 H          60.1500   85.0860   10.3079 H       1  UNL1        0.1485
     30 C          60.3283   87.1442    9.6536 C.ar    1  UNL1        0.1429
     31 N          60.1391   88.3186   10.5674 N.ar    1  UNL1       -0.2084
     32 C          59.6789   89.6340   10.0127 C.ar    1  UNL1        0.2012
     33 N          59.4078   89.7752    8.5442 N.ar    1  UNL1       -0.2087
     34 C          59.5970   88.6008    7.6303 C.ar    1  UNL1        0.1396
     35 N          59.3260   88.7420    6.1618 N.pl3   1  UNL1       -0.3420
     36 C          60.0573   87.2853    8.1850 C.ar    1  UNL1        0.1308
     37 H          59.0239   89.6054    5.7977 H       1  UNL1        0.1437
     38 H          59.4502   87.9712    5.5620 H       1  UNL1        0.1437
     39 C          60.2465   86.1110    7.2712 C.1     1  UNL1        0.1061
     40 N          60.4356   84.9367    6.3573 N.1     1  UNL1       -0.1906
@<TRIPOS>BOND
     1    27    26    1
     2    27    28    1
     3    28    30    1
     4    30    31   ar
     5    31    32   ar
     6    32    33   ar
     7    33    34   ar
     8    34    35    1
     9    34    36   ar
    10    36    39    1
    11    39    40    3
    12    27     1    1
    13     1     2   ar
    14     2     3   ar
    15     3     4   ar
    16     4     5   ar
    17     5     6   ar
    18     6     7    1
    19     6     8   ar
    20     8     9   ar
    21     9    10   ar
    22    10    12    1
    23    12    13    2
    24    12    14   am
    25    14    15    1
    26    15    16    1
    27    16    17    1
    28    16    18    1
    29    10    11   ar
    30    11    20    1
    31    20    21   ar
    32    21    22   ar
    33    22    23   ar
    34    23    24   ar
    35    24    25   ar
    36    36    30   ar
    37    11     1   ar
    38    25    20   ar
    39     9     3   ar
    40    18    14    1
    41    28    29    1
    42    35    37    1
    43    35    38    1
    44    17    19    1
@<TRIPOS>MOLECULE
*****
 40 44 0 0 0
SMALL
GASTEIGER

@<TRIPOS>ATOM
      1 C          62.7393   87.3748   11.6263 C.ar    1  UNL1        0.0768
      2 N          63.2746   87.5611   13.0151 N.ar    1  UNL1       -0.2480
      3 C          63.7665   86.3774   13.7943 C.ar    1  UNL1        0.0812
      4 C          64.3018   86.5637   15.1830 C.ar    1  UNL1        0.0214
      5 C          64.7938   85.3801   15.9621 C.ar    1  UNL1        0.0312
      6 C          64.7504   84.0102   15.3525 C.ar    1  UNL1        0.1402
      7 F          65.2423   82.8266   16.1317 F       1  UNL1       -0.2042
      8 C          64.2151   83.8240   13.9637 C.ar    1  UNL1        0.0313
      9 C          63.7232   85.0076   13.1846 C.ar    1  UNL1        0.0243
     10 C          63.1878   84.8214   11.7958 C.ar    1  UNL1        0.0563
     11 C          62.6959   86.0050   11.0166 C.ar    1  UNL1        0.0196
     12 C          63.1445   83.4516   11.1861 C.2     1  UNL1        0.2492
     13 O          63.6166   83.2421    9.7779 O.2     1  UNL1       -0.2699
     14 N          62.6289   82.2912   11.9847 N.am    1  UNL1       -0.2710
     15 C          62.0892   82.1154   13.3732 C.3     1  UNL1        0.1247
     16 C          61.8998   80.6501   13.1141 C.3     1  UNL1        0.1500
     17 O          61.3842   79.4898   13.9126 O.3     1  UNL1       -0.3810
     18 C          62.4394   80.8259   11.7256 C.3     1  UNL1        0.1247
     19 H          61.1221   79.7956   14.7951 H       1  UNL1        0.2105
     20 C          62.1606   85.8188    9.6278 C.ar    1  UNL1        0.0013
     21 C          63.0842   85.4197    8.5153 C.ar    1  UNL1        0.0000
     22 C          62.5489   85.2335    7.1265 C.ar    1  UNL1        0.0000
     23 C          61.0901   85.4464    6.8502 C.ar    1  UNL1        0.0000
     24 C          60.1665   85.8455    7.9627 C.ar    1  UNL1        0.0000
     25 C          60.7017   86.0317    9.3515 C.ar    1  UNL1        0.0000
     26 C          61.9216   88.4143    9.3900 C.3     1  UNL1        0.0278
     27 C          62.2473   88.5585   10.8471 C.3     1  UNL1        0.1109
     28 N          62.0812   89.8861   11.5250 N.pl3   1  UNL1       -0.3142
     29 H          61.2048   90.1458   11.8909 H       1  UNL1        0.1485
     30 C          63.2502   90.8183   11.6454 C.ar    1  UNL1        0.1429
     31 N          63.8100   91.4812   10.4217 N.ar    1  UNL1       -0.2084
     32 C          64.9790   92.4133   10.5421 C.ar    1  UNL1        0.2012
     33 N          65.5882   92.6826   11.8861 N.ar    1  UNL1       -0.2087
     34 C          65.0285   92.0197   13.1097 C.ar    1  UNL1        0.1396
     35 N          65.6377   92.2890   14.4537 N.pl3   1  UNL1       -0.3420
     36 C          63.8594   91.0875   12.9894 C.ar    1  UNL1        0.1308
     37 H          66.4050   92.9008   14.5327 H       1  UNL1        0.1437
     38 H          65.2703   91.8539   15.2568 H       1  UNL1        0.1437
     39 C          63.2997   90.4247   14.2130 C.1     1  UNL1        0.1061
     40 N          62.7399   89.7618   15.4366 N.1     1  UNL1       -0.1906
@<TRIPOS>BOND
     1    27    26    1
     2    27    28    1
     3    28    30    1
     4    30    31   ar
     5    31    32   ar
     6    32    33   ar
     7    33    34   ar
     8    34    35    1
     9    34    36   ar
    10    36    39    1
    11    39    40    3
    12    27     1    1
    13     1     2   ar
    14     2     3   ar
    15     3     4   ar
    16     4     5   ar
    17     5     6   ar
    18     6     7    1
    19     6     8   ar
    20     8     9   ar
    21     9    10   ar
    22    10    12    1
    23    12    13    2
    24    12    14   am
    25    14    15    1
    26    15    16    1
    27    16    17    1
    28    16    18    1
    29    10    11   ar
    30    11    20    1
    31    20    21   ar
    32    21    22   ar
    33    22    23   ar
    34    23    24   ar
    35    24    25   ar
    36    36    30   ar
    37    11     1   ar
    38    25    20   ar
    39     9     3   ar
    40    18    14    1
    41    28    29    1
    42    35    37    1
    43    35    38    1
    44    17    19    1
