@<TRIPOS>MOLECULE
*****
 42 43 0 0 0
SMALL
GASTEIGER

@<TRIPOS>ATOM
      1 O          63.6227   89.0928   14.1479 O.3     1  UNL1       -0.2926
      2 P          63.5485   90.0768   15.2776 P.3     1  UNL1        0.3697
      3 O          62.6849   89.1245   16.0505 O.2     1  UNL1       -0.2553
      4 O          63.4743   91.0609   16.4073 O.3     1  UNL1       -0.3218
      5 H          62.9318   90.6924   17.1220 H       1  UNL1        0.2198
      6 C          64.4120   91.0292   14.5047 C.3     1  UNL1        0.2579
      7 O          65.2037   92.0788   15.2269 O.3     1  UNL1       -0.3426
      8 C          66.6772   92.2100   14.9788 C.3     1  UNL1        0.1387
      9 C          67.6005   92.5534   16.1100 C.3     1  UNL1        0.0342
     10 C          67.2274   91.9978   13.5995 C.3     1  UNL1        0.1384
     11 N          66.9076   92.9736   12.5061 N.ar    1  UNL1       -0.2918
     12 C          66.0068   94.1671   12.6252 C.ar    1  UNL1        0.1798
     13 N          65.9749   94.8583   11.2944 N.ar    1  UNL1       -0.2195
     14 C          66.8560   94.0921   10.3528 C.ar    1  UNL1        0.1481
     15 C          67.2079   94.3045    8.9103 C.ar    1  UNL1        0.1480
     16 N          66.6314   95.4693    8.1613 N.pl3   1  UNL1       -0.3413
     17 N          68.1361   93.3521    8.2166 N.ar    1  UNL1       -0.2078
     18 C          68.7126   92.1873    8.9655 C.ar    1  UNL1        0.2015
     19 N          68.3607   91.9748   10.4081 N.ar    1  UNL1       -0.2048
     20 C          67.4324   92.9272   11.1017 C.ar    1  UNL1        0.1674
     21 H          66.0222   96.0944    8.6166 H       1  UNL1        0.1438
     22 H          66.8624   95.6088    7.2145 H       1  UNL1        0.1438
     23 C          63.5189   89.5698   12.7296 C.3     1  UNL1        0.1514
     24 C          62.3394   89.1769   11.8905 C.3     1  UNL1        0.0326
     25 C          61.1763   90.1132   11.7464 C.3     1  UNL1        0.0026
     26 C          60.3360   90.0796   10.5044 C.3     1  UNL1        0.0001
     27 C          60.8132   89.3302    9.2959 C.3     1  UNL1        0.0000
     28 C          59.8208   88.7676    8.3219 C.3     1  UNL1        0.0000
     29 C          59.9664   87.3568    7.8334 C.3     1  UNL1        0.0000
     30 C          60.3543   86.2682    8.7896 C.3     1  UNL1        0.0000
     31 C          61.7982   85.8992    8.9604 C.3     1  UNL1        0.0000
     32 C          62.4004   85.8418   10.3329 C.3     1  UNL1        0.0000
     33 C          62.5687   84.5209   11.0234 C.3     1  UNL1        0.0000
     34 C          63.8452   83.7493   10.8655 C.3     1  UNL1        0.0000
     35 C          63.8350   82.2530   10.9697 C.3     1  UNL1        0.0000
     36 C          62.7073   81.5578   11.6732 C.3     1  UNL1        0.0000
     37 C          62.8353   81.2003   13.1243 C.3     1  UNL1        0.0000
     38 C          62.0532   81.9588   14.1554 C.3     1  UNL1        0.0000
     39 C          62.7111   83.0561   14.9384 C.3     1  UNL1        0.0000
     40 C          64.1621   83.3674   14.7199 C.3     1  UNL1        0.0000
     41 C          64.2540   85.9069   15.2609 C.3     1  UNL1        0.0000
     42 C          64.5835   84.7595   14.3528 C.3     1  UNL1        0.0000
@<TRIPOS>BOND
     1    41    42    1
     2    42    40    1
     3    40    39    1
     4    39    38    1
     5    38    37    1
     6    37    36    1
     7    36    35    1
     8    35    34    1
     9    34    33    1
    10    33    32    1
    11    32    31    1
    12    31    30    1
    13    30    29    1
    14    29    28    1
    15    28    27    1
    16    27    26    1
    17    26    25    1
    18    25    24    1
    19    24    23    1
    20    23     1    1
    21     1     2    1
    22     2     3    2
    23     2     4    1
    24     2     6    1
    25     6     7    1
    26     7     8    1
    27     8     9    1
    28     8    10    1
    29    10    11    1
    30    11    12   ar
    31    12    13   ar
    32    13    14   ar
    33    14    15   ar
    34    15    16    1
    35    15    17   ar
    36    17    18   ar
    37    18    19   ar
    38    19    20   ar
    39    20    11   ar
    40    20    14   ar
    41     4     5    1
    42    16    21    1
    43    16    22    1
@<TRIPOS>MOLECULE
*****
 42 43 0 0 0
SMALL
GASTEIGER

@<TRIPOS>ATOM
      1 O          63.8698   82.0981   14.5316 O.3     1  UNL1       -0.2926
      2 P          63.0155   81.0855   13.8282 P.3     1  UNL1        0.3697
      3 O          63.7963   79.9789   14.4731 O.2     1  UNL1       -0.2553
      4 O          62.1613   80.0728   13.1248 O.3     1  UNL1       -0.3218
      5 H          62.4532   79.1799   13.3663 H       1  UNL1        0.2198
      6 C          62.2348   82.1921   13.1833 C.3     1  UNL1        0.2579
      7 O          62.3408   82.4219   11.7049 O.3     1  UNL1       -0.3426
      8 C          63.2355   83.5036   11.1762 C.3     1  UNL1        0.1387
      9 C          64.5009   83.1446   10.4553 C.3     1  UNL1        0.0342
     10 C          62.8647   84.9444   11.3684 C.3     1  UNL1        0.1384
     11 N          62.2195   85.7084   10.2504 N.ar    1  UNL1       -0.2918
     12 C          62.3159   85.3827    8.7893 C.ar    1  UNL1        0.1798
     13 N          61.5206   86.4053    8.0331 N.ar    1  UNL1       -0.2195
     14 C          60.9327   87.3629    9.0267 C.ar    1  UNL1        0.1481
     15 C          60.0599   88.5714    8.8607 C.ar    1  UNL1        0.1480
     16 N          59.6279   89.0021    7.4904 N.pl3   1  UNL1       -0.3413
     17 N          59.6189   89.3492   10.0651 N.ar    1  UNL1       -0.2078
     18 C          60.0509   88.9185   11.4355 C.ar    1  UNL1        0.2015
     19 N          60.9237   87.7100   11.6015 N.ar    1  UNL1       -0.2048
     20 C          61.3646   86.9322   10.3971 C.ar    1  UNL1        0.1674
     21 H          59.9173   88.4916    6.6999 H       1  UNL1        0.1438
     22 H          59.0550   89.7953    7.3814 H       1  UNL1        0.1438
     23 C          63.3121   83.4512   14.8604 C.3     1  UNL1        0.1514
     24 C          64.1945   84.6624   14.7940 C.3     1  UNL1        0.0326
     25 C          64.0256   85.7689   15.7925 C.3     1  UNL1        0.0026
     26 C          62.9155   85.7076   16.7994 C.3     1  UNL1        0.0001
     27 C          62.4267   86.9653   17.4545 C.3     1  UNL1        0.0000
     28 C          63.2102   88.2368   17.3154 C.3     1  UNL1        0.0000
     29 C          62.7169   89.3265   16.4102 C.3     1  UNL1        0.0000
     30 C          63.6834   90.0732   15.5394 C.3     1  UNL1        0.0000
     31 C          64.4085   89.3574   14.4386 C.3     1  UNL1        0.0000
     32 C          63.8169   89.3045   13.0612 C.3     1  UNL1        0.0000
     33 C          63.1532   90.5190   12.4829 C.3     1  UNL1        0.0000
     34 C          63.3066   90.8346   11.0245 C.3     1  UNL1        0.0000
     35 C          64.0879   92.0414   10.5965 C.3     1  UNL1        0.0000
     36 C          65.5018   92.2238   11.0630 C.3     1  UNL1        0.0000
     37 C          65.8365   93.3192   12.0314 C.3     1  UNL1        0.0000
     38 C          66.1192   92.9903   13.4674 C.3     1  UNL1        0.0000
     39 C          66.9964   91.8230   13.8108 C.3     1  UNL1        0.0000
     40 C          67.4921   91.6449   15.2153 C.3     1  UNL1        0.0000
     41 C          68.6353   93.8697   15.9179 C.3     1  UNL1        0.0000
     42 C          68.7074   92.3902   15.6819 C.3     1  UNL1        0.0000
@<TRIPOS>BOND
     1    41    42    1
     2    42    40    1
     3    40    39    1
     4    39    38    1
     5    38    37    1
     6    37    36    1
     7    36    35    1
     8    35    34    1
     9    34    33    1
    10    33    32    1
    11    32    31    1
    12    31    30    1
    13    30    29    1
    14    29    28    1
    15    28    27    1
    16    27    26    1
    17    26    25    1
    18    25    24    1
    19    24    23    1
    20    23     1    1
    21     1     2    1
    22     2     3    2
    23     2     4    1
    24     2     6    1
    25     6     7    1
    26     7     8    1
    27     8     9    1
    28     8    10    1
    29    10    11    1
    30    11    12   ar
    31    12    13   ar
    32    13    14   ar
    33    14    15   ar
    34    15    16    1
    35    15    17   ar
    36    17    18   ar
    37    18    19   ar
    38    19    20   ar
    39    20    11   ar
    40    20    14   ar
    41     4     5    1
    42    16    21    1
    43    16    22    1
@<TRIPOS>MOLECULE
*****
 42 43 0 0 0
SMALL
GASTEIGER

@<TRIPOS>ATOM
      1 O          59.7796   87.3738    9.1481 O.3     1  UNL1       -0.2926
      2 P          59.7408   88.5515    8.2199 P.3     1  UNL1        0.3697
      3 O          58.6240   87.9092    7.4517 O.2     1  UNL1       -0.2553
      4 O          59.7020   89.7291    7.2917 O.3     1  UNL1       -0.3218
      5 H          59.0128   89.5914    6.6233 H       1  UNL1        0.2198
      6 C          60.8576   89.1938    8.9882 C.3     1  UNL1        0.2579
      7 O          60.5516   90.2120   10.0462 O.3     1  UNL1       -0.3426
      8 C          60.6496   89.8398   11.4960 C.3     1  UNL1        0.1387
      9 C          59.4064   89.5327   12.2772 C.3     1  UNL1        0.0342
     10 C          61.9908   89.7748   12.1647 C.3     1  UNL1        0.1384
     11 N          63.0648   90.7520   11.7880 N.ar    1  UNL1       -0.2918
     12 C          63.3749   91.2297   10.4004 C.ar    1  UNL1        0.1798
     13 N          64.5189   92.1959   10.4877 N.ar    1  UNL1       -0.2195
     14 C          64.9159   92.3153   11.9293 C.ar    1  UNL1        0.1481
     15 C          65.9795   93.1213   12.6140 C.ar    1  UNL1        0.1480
     16 N          66.8783   94.0138   11.8103 N.pl3   1  UNL1       -0.3413
     17 N          66.1445   93.0350   14.1023 N.ar    1  UNL1       -0.2078
     18 C          65.2457   92.1426   14.9060 C.ar    1  UNL1        0.2015
     19 N          64.1821   91.3365   14.2213 N.ar    1  UNL1       -0.2048
     20 C          64.0171   91.4229   12.7330 C.ar    1  UNL1        0.1674
     21 H          66.7700   94.0704   10.8334 H       1  UNL1        0.1438
     22 H          67.5764   94.5428   12.2597 H       1  UNL1        0.1438
     23 C          60.8855   86.3666    9.0360 C.3     1  UNL1        0.1514
     24 C          62.0659   86.4429    9.9584 C.3     1  UNL1        0.0326
     25 C          61.9982   85.8106   11.3170 C.3     1  UNL1        0.0026
     26 C          62.7684   84.5546   11.5988 C.3     1  UNL1        0.0001
     27 C          63.4577   83.8306   10.4806 C.3     1  UNL1        0.0000
     28 C          63.9580   82.4318   10.6886 C.3     1  UNL1        0.0000
     29 C          63.0647   81.4008   11.3125 C.3     1  UNL1        0.0000
     30 C          63.4550   80.7562   12.6095 C.3     1  UNL1        0.0000
     31 C          62.3960   80.2829   13.5604 C.3     1  UNL1        0.0000
     32 C          61.5011   81.2758   14.2411 C.3     1  UNL1        0.0000
     33 C          61.8649   82.7309   14.2495 C.3     1  UNL1        0.0000
     34 C          62.7143   83.2852   15.3546 C.3     1  UNL1        0.0000
     35 C          64.1906   83.4568   15.1519 C.3     1  UNL1        0.0000
     36 C          64.7058   84.5860   14.3096 C.3     1  UNL1        0.0000
     37 C          64.9738   85.9242   14.9320 C.3     1  UNL1        0.0000
     38 C          64.2905   87.1490   14.4003 C.3     1  UNL1        0.0000
     39 C          64.1847   88.3786   15.2528 C.3     1  UNL1        0.0000
     40 C          63.0569   88.5176   16.2319 C.3     1  UNL1        0.0000
     41 C          62.3491   86.3473   17.4725 C.3     1  UNL1        0.0000
     42 C          63.0366   87.6804   17.4765 C.3     1  UNL1        0.0000
@<TRIPOS>BOND
     1    41    42    1
     2    42    40    1
     3    40    39    1
     4    39    38    1
     5    38    37    1
     6    37    36    1
     7    36    35    1
     8    35    34    1
     9    34    33    1
    10    33    32    1
    11    32    31    1
    12    31    30    1
    13    30    29    1
    14    29    28    1
    15    28    27    1
    16    27    26    1
    17    26    25    1
    18    25    24    1
    19    24    23    1
    20    23     1    1
    21     1     2    1
    22     2     3    2
    23     2     4    1
    24     2     6    1
    25     6     7    1
    26     7     8    1
    27     8     9    1
    28     8    10    1
    29    10    11    1
    30    11    12   ar
    31    12    13   ar
    32    13    14   ar
    33    14    15   ar
    34    15    16    1
    35    15    17   ar
    36    17    18   ar
    37    18    19   ar
    38    19    20   ar
    39    20    11   ar
    40    20    14   ar
    41     4     5    1
    42    16    21    1
    43    16    22    1
@<TRIPOS>MOLECULE
*****
 42 43 0 0 0
SMALL
GASTEIGER

@<TRIPOS>ATOM
      1 O          63.8527   89.0918   14.8366 O.3     1  UNL1       -0.2926
      2 P          63.5345   90.2157   15.7776 P.3     1  UNL1        0.3697
      3 O          63.8668   91.2089   14.7038 O.2     1  UNL1       -0.2553
      4 O          63.2163   91.3396   16.7186 O.3     1  UNL1       -0.3218
      5 H          63.3503   92.1874   16.2668 H       1  UNL1        0.2198
      6 C          63.2023   89.2225   16.8514 C.3     1  UNL1        0.2579
      7 O          62.5182   87.9355   16.4971 O.3     1  UNL1       -0.3426
      8 C          62.5828   86.7682   17.4370 C.3     1  UNL1        0.1387
      9 C          62.7701   86.9986   18.9073 C.3     1  UNL1        0.0342
     10 C          62.4602   85.3704   16.9065 C.3     1  UNL1        0.1384
     11 N          63.2552   84.9517   15.7053 N.ar    1  UNL1       -0.2918
     12 C          64.4746   85.6423   15.1706 C.ar    1  UNL1        0.1798
     13 N          64.9433   84.8862   13.9628 N.ar    1  UNL1       -0.2195
     14 C          64.0136   83.7283   13.7512 C.ar    1  UNL1        0.1481
     15 C          63.9822   82.6423   12.7170 C.ar    1  UNL1        0.1480
     16 N          65.0256   82.6019   11.6400 N.pl3   1  UNL1       -0.3413
     17 N          62.9075   81.5968   12.7597 N.ar    1  UNL1       -0.2078
     18 C          61.8641   81.6373   13.8366 C.ar    1  UNL1        0.2015
     19 N          61.8955   82.7232   14.8708 N.ar    1  UNL1       -0.2048
     20 C          62.9702   83.7687   14.8281 C.ar    1  UNL1        0.1674
     21 H          65.7309   83.2881   11.6120 H       1  UNL1        0.1438
     22 H          65.0050   81.8891   10.9612 H       1  UNL1        0.1438
     23 C          63.2312   89.0574   13.4719 C.3     1  UNL1        0.1514
     24 C          63.5133   87.9100   12.5478 C.3     1  UNL1        0.0326
     25 C          62.4345   87.3929   11.6430 C.3     1  UNL1        0.0026
     26 C          62.2156   85.9154   11.5050 C.3     1  UNL1        0.0001
     27 C          62.4269   85.2465   10.1792 C.3     1  UNL1        0.0000
     28 C          62.3147   86.0410    8.9119 C.3     1  UNL1        0.0000
     29 C          61.0227   86.0590    8.1499 C.3     1  UNL1        0.0000
     30 C          59.8554   86.8438    8.6711 C.3     1  UNL1        0.0000
     31 C          59.6771   88.2783    8.2704 C.3     1  UNL1        0.0000
     32 C          60.5967   89.3296    8.8171 C.3     1  UNL1        0.0000
     33 C          60.2949   89.9781   10.1356 C.3     1  UNL1        0.0000
     34 C          61.3765   90.7039   10.8794 C.3     1  UNL1        0.0000
     35 C          62.7015   90.9532   10.2220 C.3     1  UNL1        0.0000
     36 C          63.8943   91.3205   11.0541 C.3     1  UNL1        0.0000
     37 C          64.8109   92.4203   10.6066 C.3     1  UNL1        0.0000
     38 C          66.1109   92.6496   11.3189 C.3     1  UNL1        0.0000
     39 C          66.1131   93.1422   12.7357 C.3     1  UNL1        0.0000
     40 C          66.9713   92.4661   13.7635 C.3     1  UNL1        0.0000
     41 C          68.4104   92.6674   15.9173 C.3     1  UNL1        0.0000
     42 C          67.2925   93.1665   15.0506 C.3     1  UNL1        0.0000
@<TRIPOS>BOND
     1    41    42    1
     2    42    40    1
     3    40    39    1
     4    39    38    1
     5    38    37    1
     6    37    36    1
     7    36    35    1
     8    35    34    1
     9    34    33    1
    10    33    32    1
    11    32    31    1
    12    31    30    1
    13    30    29    1
    14    29    28    1
    15    28    27    1
    16    27    26    1
    17    26    25    1
    18    25    24    1
    19    24    23    1
    20    23     1    1
    21     1     2    1
    22     2     3    2
    23     2     4    1
    24     2     6    1
    25     6     7    1
    26     7     8    1
    27     8     9    1
    28     8    10    1
    29    10    11    1
    30    11    12   ar
    31    12    13   ar
    32    13    14   ar
    33    14    15   ar
    34    15    16    1
    35    15    17   ar
    36    17    18   ar
    37    18    19   ar
    38    19    20   ar
    39    20    11   ar
    40    20    14   ar
    41     4     5    1
    42    16    21    1
    43    16    22    1
@<TRIPOS>MOLECULE
*****
 42 43 0 0 0
SMALL
GASTEIGER

@<TRIPOS>ATOM
      1 O          64.5308   91.5976   12.1777 O.3     1  UNL1       -0.2926
      2 P          63.8045   91.6259   10.8656 P.3     1  UNL1        0.3697
      3 O          64.6533   92.7797   10.4206 O.2     1  UNL1       -0.2553
      4 O          63.0782   91.6541    9.5535 O.3     1  UNL1       -0.3218
      5 H          63.4392   92.3637    8.9993 H       1  UNL1        0.2198
      6 C          62.9557   90.4720   11.3106 C.3     1  UNL1        0.2579
      7 O          62.0240   89.8082   10.3404 O.3     1  UNL1       -0.3426
      8 C          60.6054   89.5247   10.7370 C.3     1  UNL1        0.1387
      9 C          59.6985   90.6513   11.1349 C.3     1  UNL1        0.0342
     10 C          60.0938   88.1146   10.7358 C.3     1  UNL1        0.1384
     11 N          60.0304   87.3409    9.4524 N.ar    1  UNL1       -0.2918
     12 C          58.8752   87.3127    8.4960 C.ar    1  UNL1        0.1798
     13 N          59.2419   86.4139    7.3525 N.ar    1  UNL1       -0.2195
     14 C          60.6238   85.8865    7.6022 C.ar    1  UNL1        0.1481
     15 C          61.5013   84.9587    6.8155 C.ar    1  UNL1        0.1480
     16 N          61.0141   84.3857    5.5176 N.pl3   1  UNL1       -0.3413
     17 N          62.8661   84.6037    7.3265 N.ar    1  UNL1       -0.2078
     18 C          63.3534   85.1767    8.6244 C.ar    1  UNL1        0.2015
     19 N          62.4759   86.1045    9.4111 N.ar    1  UNL1       -0.2048
     20 C          61.1111   86.4594    8.9000 C.ar    1  UNL1        0.1674
     21 H          60.1183   84.6187    5.1822 H       1  UNL1        0.1438
     22 H          61.5900   83.7767    5.0013 H       1  UNL1        0.1438
     23 C          65.5465   92.6545   12.4957 C.3     1  UNL1        0.1514
     24 C          66.6888   92.3440   13.4170 C.3     1  UNL1        0.0326
     25 C          66.4895   91.4033   14.5682 C.3     1  UNL1        0.0026
     26 C          65.3249   91.5886   15.4952 C.3     1  UNL1        0.0001
     27 C          64.0243   90.8966   15.2132 C.3     1  UNL1        0.0000
     28 C          63.3334   90.1268   16.2995 C.3     1  UNL1        0.0000
     29 C          63.3764   88.6273   16.2999 C.3     1  UNL1        0.0000
     30 C          62.8218   87.8615   17.4643 C.3     1  UNL1        0.0000
     31 C          62.9738   86.3703   17.5221 C.3     1  UNL1        0.0000
     32 C          62.0525   85.4912   16.7295 C.3     1  UNL1        0.0000
     33 C          62.6164   84.4289   15.8330 C.3     1  UNL1        0.0000
     34 C          63.9998   84.5772   15.2726 C.3     1  UNL1        0.0000
     35 C          64.1960   85.1553   13.9025 C.3     1  UNL1        0.0000
     36 C          63.0705   85.1342   12.9112 C.3     1  UNL1        0.0000
     37 C          62.7901   83.8903   12.1213 C.3     1  UNL1        0.0000
     38 C          63.9251   83.0892   11.5557 C.3     1  UNL1        0.0000
     39 C          64.1541   81.6814   12.0200 C.3     1  UNL1        0.0000
     40 C          63.7519   81.2741   13.4065 C.3     1  UNL1        0.0000
     41 C          61.2650   81.1798   14.1527 C.3     1  UNL1        0.0000
     42 C          62.4891   80.4938   13.6224 C.3     1  UNL1        0.0000
@<TRIPOS>BOND
     1    41    42    1
     2    42    40    1
     3    40    39    1
     4    39    38    1
     5    38    37    1
     6    37    36    1
     7    36    35    1
     8    35    34    1
     9    34    33    1
    10    33    32    1
    11    32    31    1
    12    31    30    1
    13    30    29    1
    14    29    28    1
    15    28    27    1
    16    27    26    1
    17    26    25    1
    18    25    24    1
    19    24    23    1
    20    23     1    1
    21     1     2    1
    22     2     3    2
    23     2     4    1
    24     2     6    1
    25     6     7    1
    26     7     8    1
    27     8     9    1
    28     8    10    1
    29    10    11    1
    30    11    12   ar
    31    12    13   ar
    32    13    14   ar
    33    14    15   ar
    34    15    16    1
    35    15    17   ar
    36    17    18   ar
    37    18    19   ar
    38    19    20   ar
    39    20    11   ar
    40    20    14   ar
    41     4     5    1
    42    16    21    1
    43    16    22    1
@<TRIPOS>MOLECULE
*****
 42 43 0 0 0
SMALL
GASTEIGER

@<TRIPOS>ATOM
      1 O          63.6763   90.2553   12.1766 O.3     1  UNL1       -0.2926
      2 P          63.5504   90.3850   13.6657 P.3     1  UNL1        0.3697
      3 O          62.1641   89.8163   13.5980 O.2     1  UNL1       -0.2553
      4 O          63.4245   90.5147   15.1547 O.3     1  UNL1       -0.3218
      5 H          62.5522   90.1959   15.4344 H       1  UNL1        0.2198
      6 C          64.9368   90.9537   13.7333 C.3     1  UNL1        0.2579
      7 O          65.5404   91.3025   15.0614 O.3     1  UNL1       -0.3426
      8 C          66.4862   92.4612   15.1744 C.3     1  UNL1        0.1387
      9 C          67.6022   92.4236   16.1760 C.3     1  UNL1        0.0342
     10 C          66.3159   93.6578   14.2859 C.3     1  UNL1        0.1384
     11 N          66.6633   93.5660   12.8295 N.ar    1  UNL1       -0.2918
     12 C          67.3067   92.3944   12.1488 C.ar    1  UNL1        0.1798
     13 N          67.4693   92.7340   10.6968 N.ar    1  UNL1       -0.2195
     14 C          66.9263   94.1154   10.4802 C.ar    1  UNL1        0.1481
     15 C          66.8212   94.9715    9.2530 C.ar    1  UNL1        0.1480
     16 N          67.3193   94.4574    7.9349 N.pl3   1  UNL1       -0.3413
     17 N          66.2178   96.3418    9.3440 N.ar    1  UNL1       -0.2078
     18 C          65.7197   96.8560   10.6621 C.ar    1  UNL1        0.2015
     19 N          65.8248   95.9999   11.8893 N.ar    1  UNL1       -0.2048
     20 C          66.4281   94.6296   11.7983 C.ar    1  UNL1        0.1674
     21 H          67.7153   93.5580    7.8752 H       1  UNL1        0.1438
     22 H          67.2503   95.0193    7.1294 H       1  UNL1        0.1438
     23 C          62.4912   90.5245   11.2974 C.3     1  UNL1        0.1514
     24 C          61.9336   89.4315   10.4347 C.3     1  UNL1        0.0326
     25 C          60.5155   89.5068    9.9518 C.3     1  UNL1        0.0026
     26 C          60.1415   88.9105    8.6272 C.3     1  UNL1        0.0001
     27 C          59.6736   87.4874    8.5506 C.3     1  UNL1        0.0000
     28 C          60.5529   86.3807    9.0525 C.3     1  UNL1        0.0000
     29 C          62.0216   86.3928    8.7477 C.3     1  UNL1        0.0000
     30 C          62.6519   85.2256    8.0474 C.3     1  UNL1        0.0000
     31 C          63.7455   84.4492    8.7190 C.3     1  UNL1        0.0000
     32 C          63.5832   84.0019   10.1415 C.3     1  UNL1        0.0000
     33 C          63.6176   82.5403   10.4766 C.3     1  UNL1        0.0000
     34 C          62.7253   81.9963   11.5527 C.3     1  UNL1        0.0000
     35 C          63.1077   80.7423   12.2814 C.3     1  UNL1        0.0000
     36 C          62.6321   80.5163   13.6860 C.3     1  UNL1        0.0000
     37 C          61.6135   81.4369   14.2901 C.3     1  UNL1        0.0000
     38 C          62.0207   82.8028   14.7574 C.3     1  UNL1        0.0000
     39 C          63.4731   83.1322   14.9365 C.3     1  UNL1        0.0000
     40 C          64.0254   84.4126   14.3839 C.3     1  UNL1        0.0000
     41 C          64.5205   86.9307   14.7896 C.3     1  UNL1        0.0000
     42 C          64.4012   85.5297   15.3120 C.3     1  UNL1        0.0000
@<TRIPOS>BOND
     1    41    42    1
     2    42    40    1
     3    40    39    1
     4    39    38    1
     5    38    37    1
     6    37    36    1
     7    36    35    1
     8    35    34    1
     9    34    33    1
    10    33    32    1
    11    32    31    1
    12    31    30    1
    13    30    29    1
    14    29    28    1
    15    28    27    1
    16    27    26    1
    17    26    25    1
    18    25    24    1
    19    24    23    1
    20    23     1    1
    21     1     2    1
    22     2     3    2
    23     2     4    1
    24     2     6    1
    25     6     7    1
    26     7     8    1
    27     8     9    1
    28     8    10    1
    29    10    11    1
    30    11    12   ar
    31    12    13   ar
    32    13    14   ar
    33    14    15   ar
    34    15    16    1
    35    15    17   ar
    36    17    18   ar
    37    18    19   ar
    38    19    20   ar
    39    20    11   ar
    40    20    14   ar
    41     4     5    1
    42    16    21    1
    43    16    22    1
@<TRIPOS>MOLECULE
*****
 42 43 0 0 0
SMALL
GASTEIGER

@<TRIPOS>ATOM
      1 O          60.9840   90.2396   10.4699 O.3     1  UNL1       -0.2926
      2 P          60.2866   89.0552   11.0705 P.3     1  UNL1        0.3697
      3 O          60.2496   89.7507   12.3990 O.2     1  UNL1       -0.2553
      4 O          59.5891   87.8708   11.6711 O.3     1  UNL1       -0.3218
      5 H          59.4163   88.0395   12.6105 H       1  UNL1        0.2198
      6 C          60.3235   88.3598    9.7419 C.3     1  UNL1        0.2579
      7 O          60.4251   86.8645    9.6806 O.3     1  UNL1       -0.3426
      8 C          61.7702   86.2074    9.5858 C.3     1  UNL1        0.1387
      9 C          62.2689   85.7073    8.2625 C.3     1  UNL1        0.0342
     10 C          62.6165   86.0504   10.8144 C.3     1  UNL1        0.1384
     11 N          62.9335   84.6804   11.3367 N.ar    1  UNL1       -0.2918
     12 C          63.4156   83.5163   10.5228 C.ar    1  UNL1        0.1798
     13 N          63.6041   82.3506   11.4477 N.ar    1  UNL1       -0.2195
     14 C          63.2385   82.7942   12.8331 C.ar    1  UNL1        0.1481
     15 C          63.2294   82.0729   14.1483 C.ar    1  UNL1        0.1480
     16 N          63.6439   80.6330   14.2169 N.pl3   1  UNL1       -0.3413
     17 N          62.8058   82.7917   15.3949 N.ar    1  UNL1       -0.2078
     18 C          62.3914   84.2316   15.3263 C.ar    1  UNL1        0.2015
     19 N          62.4004   84.9529   14.0111 N.ar    1  UNL1       -0.2048
     20 C          62.8240   84.2341   12.7645 C.ar    1  UNL1        0.1674
     21 H          63.9219   80.1612   13.3987 H       1  UNL1        0.1438
     22 H          63.6379   80.1596   15.0801 H       1  UNL1        0.1438
     23 C          62.1467   90.8656   11.1813 C.3     1  UNL1        0.1514
     24 C          63.1669   89.9989   11.8580 C.3     1  UNL1        0.0326
     25 C          63.6298   90.3295   13.2460 C.3     1  UNL1        0.0026
     26 C          64.3198   89.2869   14.0747 C.3     1  UNL1        0.0001
     27 C          63.7499   88.8866   15.4032 C.3     1  UNL1        0.0000
     28 C          63.4964   89.9260   16.4545 C.3     1  UNL1        0.0000
     29 C          63.7623   91.3724   16.1588 C.3     1  UNL1        0.0000
     30 C          64.8933   92.0821   16.8422 C.3     1  UNL1        0.0000
     31 C          65.9022   92.8403   16.0315 C.3     1  UNL1        0.0000
     32 C          67.3648   92.5475   16.1899 C.3     1  UNL1        0.0000
     33 C          68.2003   92.2275   14.9860 C.3     1  UNL1        0.0000
     34 C          67.5748   91.5679   13.7928 C.3     1  UNL1        0.0000
     35 C          67.2571   92.3760   12.5698 C.3     1  UNL1        0.0000
     36 C          65.8394   92.7700   12.2785 C.3     1  UNL1        0.0000
     37 C          65.5324   93.6537   11.1060 C.3     1  UNL1        0.0000
     38 C          66.2390   94.9679   10.9520 C.3     1  UNL1        0.0000
     39 C          66.6571   95.4397    9.5910 C.3     1  UNL1        0.0000
     40 C          67.4355   94.5294    8.6879 C.3     1  UNL1        0.0000
     41 C          68.4518   92.1821    9.1438 C.3     1  UNL1        0.0000
     42 C          68.5342   93.6761    9.2492 C.3     1  UNL1        0.0000
@<TRIPOS>BOND
     1    41    42    1
     2    42    40    1
     3    40    39    1
     4    39    38    1
     5    38    37    1
     6    37    36    1
     7    36    35    1
     8    35    34    1
     9    34    33    1
    10    33    32    1
    11    32    31    1
    12    31    30    1
    13    30    29    1
    14    29    28    1
    15    28    27    1
    16    27    26    1
    17    26    25    1
    18    25    24    1
    19    24    23    1
    20    23     1    1
    21     1     2    1
    22     2     3    2
    23     2     4    1
    24     2     6    1
    25     6     7    1
    26     7     8    1
    27     8     9    1
    28     8    10    1
    29    10    11    1
    30    11    12   ar
    31    12    13   ar
    32    13    14   ar
    33    14    15   ar
    34    15    16    1
    35    15    17   ar
    36    17    18   ar
    37    18    19   ar
    38    19    20   ar
    39    20    11   ar
    40    20    14   ar
    41     4     5    1
    42    16    21    1
    43    16    22    1
@<TRIPOS>MOLECULE
*****
 42 43 0 0 0
SMALL
GASTEIGER

@<TRIPOS>ATOM
      1 O          61.1929   90.0946   10.5652 O.3     1  UNL1       -0.2926
      2 P          60.2924   89.0788   11.2033 P.3     1  UNL1        0.3697
      3 O          60.4971   89.7348   12.5366 O.2     1  UNL1       -0.2553
      4 O          59.3919   88.0629   11.8414 O.3     1  UNL1       -0.3218
      5 H          59.3226   88.2439   12.7918 H       1  UNL1        0.2198
      6 C          60.0876   88.4228    9.8700 C.3     1  UNL1        0.2579
      7 O          60.2482   86.9379    9.7321 O.3     1  UNL1       -0.3426
      8 C          61.6199   86.3328    9.6865 C.3     1  UNL1        0.1387
      9 C          62.2052   85.8990    8.3753 C.3     1  UNL1        0.0342
     10 C          62.4066   86.1615   10.9523 C.3     1  UNL1        0.1384
     11 N          62.8088   84.7893   11.4054 N.ar    1  UNL1       -0.2918
     12 C          63.3163   83.6843   10.5272 C.ar    1  UNL1        0.1798
     13 N          63.5953   82.4933   11.3954 N.ar    1  UNL1       -0.2195
     14 C          63.2603   82.8623   12.8102 C.ar    1  UNL1        0.1481
     15 C          63.3350   82.0895   14.0936 C.ar    1  UNL1        0.1480
     16 N          63.8211   80.6705   14.0874 N.pl3   1  UNL1       -0.3413
     17 N          62.9237   82.7358   15.3832 N.ar    1  UNL1       -0.2078
     18 C          62.4376   84.1548   15.3894 C.ar    1  UNL1        0.2015
     19 N          62.3628   84.9276   14.1060 N.ar    1  UNL1       -0.2048
     20 C          62.7742   84.2813   12.8164 C.ar    1  UNL1        0.1674
     21 H          64.0911   80.2463   13.2410 H       1  UNL1        0.1438
     22 H          63.8702   80.1633   14.9298 H       1  UNL1        0.1438
     23 C          62.6791   89.8929   10.5783 C.3     1  UNL1        0.1514
     24 C          63.5677   90.9052   11.2383 C.3     1  UNL1        0.0326
     25 C          64.1581   92.0239   10.4320 C.3     1  UNL1        0.0026
     26 C          65.1041   92.9940   11.0754 C.3     1  UNL1        0.0001
     27 C          65.9701   93.8740   10.2238 C.3     1  UNL1        0.0000
     28 C          67.4306   93.5676   10.0713 C.3     1  UNL1        0.0000
     29 C          67.9178   92.1546   10.1986 C.3     1  UNL1        0.0000
     30 C          68.5121   91.6797   11.4913 C.3     1  UNL1        0.0000
     31 C          67.8259   91.9858   12.7895 C.3     1  UNL1        0.0000
     32 C          68.5382   91.7500   14.0883 C.3     1  UNL1        0.0000
     33 C          68.5291   92.8081   15.1515 C.3     1  UNL1        0.0000
     34 C          67.3903   92.8834   16.1249 C.3     1  UNL1        0.0000
     35 C          65.9822   92.6822   15.6489 C.3     1  UNL1        0.0000
     36 C          64.9019   92.3322   16.6290 C.3     1  UNL1        0.0000
     37 C          63.9349   91.2288   16.3170 C.3     1  UNL1        0.0000
     38 C          63.9474   90.5810   14.9642 C.3     1  UNL1        0.0000
     39 C          64.4676   89.1829   14.8069 C.3     1  UNL1        0.0000
     40 C          63.7442   88.0367   15.4494 C.3     1  UNL1        0.0000
     41 C          62.7532   86.9912   17.6116 C.3     1  UNL1        0.0000
     42 C          63.1408   88.2003   16.8130 C.3     1  UNL1        0.0000
@<TRIPOS>BOND
     1    41    42    1
     2    42    40    1
     3    40    39    1
     4    39    38    1
     5    38    37    1
     6    37    36    1
     7    36    35    1
     8    35    34    1
     9    34    33    1
    10    33    32    1
    11    32    31    1
    12    31    30    1
    13    30    29    1
    14    29    28    1
    15    28    27    1
    16    27    26    1
    17    26    25    1
    18    25    24    1
    19    24    23    1
    20    23     1    1
    21     1     2    1
    22     2     3    2
    23     2     4    1
    24     2     6    1
    25     6     7    1
    26     7     8    1
    27     8     9    1
    28     8    10    1
    29    10    11    1
    30    11    12   ar
    31    12    13   ar
    32    13    14   ar
    33    14    15   ar
    34    15    16    1
    35    15    17   ar
    36    17    18   ar
    37    18    19   ar
    38    19    20   ar
    39    20    11   ar
    40    20    14   ar
    41     4     5    1
    42    16    21    1
    43    16    22    1
@<TRIPOS>MOLECULE
*****
 42 43 0 0 0
SMALL
GASTEIGER

@<TRIPOS>ATOM
      1 O          62.3161   90.7099   10.6980 O.3     1  UNL1       -0.2926
      2 P          61.2502   89.8221   11.2687 P.3     1  UNL1        0.3697
      3 O          62.0432   89.6837   12.5344 O.2     1  UNL1       -0.2553
      4 O          60.1844   88.9342   11.8394 O.3     1  UNL1       -0.3218
      5 H          60.4381   88.6585   12.7341 H       1  UNL1        0.2198
      6 C          60.4572   89.9605   10.0030 C.3     1  UNL1        0.2579
      7 O          59.5585   88.8462    9.5553 O.3     1  UNL1       -0.3426
      8 C          59.6175   88.3582    8.1382 C.3     1  UNL1        0.1387
      9 C          59.7141   89.3417    7.0097 C.3     1  UNL1        0.0342
     10 C          59.5801   86.8866    7.8495 C.3     1  UNL1        0.1384
     11 N          60.7936   86.0417    8.1015 N.ar    1  UNL1       -0.2918
     12 C          61.6109   85.3392    7.0582 C.ar    1  UNL1        0.1798
     13 N          62.7253   84.6144    7.7530 N.ar    1  UNL1       -0.2195
     14 C          62.5967   84.8689    9.2256 C.ar    1  UNL1        0.1481
     15 C          63.4125   84.4114   10.3982 C.ar    1  UNL1        0.1480
     16 N          64.6064   83.5292   10.1829 N.pl3   1  UNL1       -0.3413
     17 N          63.0344   84.8360   11.7863 N.ar    1  UNL1       -0.2078
     18 C          61.8405   85.7182   12.0016 C.ar    1  UNL1        0.2015
     19 N          61.0247   86.1758   10.8290 N.ar    1  UNL1       -0.2048
     20 C          61.4028   85.7511    9.4410 C.ar    1  UNL1        0.1674
     21 H          64.8545   83.2505    9.2718 H       1  UNL1        0.1438
     22 H          65.1418   83.2289   10.9525 H       1  UNL1        0.1438
     23 C          63.5538   91.0024   11.4933 C.3     1  UNL1        0.1514
     24 C          64.5720   91.9702   10.9674 C.3     1  UNL1        0.0326
     25 C          65.4480   92.7286   11.9199 C.3     1  UNL1        0.0026
     26 C          66.9394   92.5916   11.8384 C.3     1  UNL1        0.0001
     27 C          67.6759   91.7859   12.8672 C.3     1  UNL1        0.0000
     28 C          67.9084   92.3511   14.2370 C.3     1  UNL1        0.0000
     29 C          67.1566   91.8010   15.4128 C.3     1  UNL1        0.0000
     30 C          65.7925   92.3293   15.7446 C.3     1  UNL1        0.0000
     31 C          64.5832   91.4664   15.5376 C.3     1  UNL1        0.0000
     32 C          64.6936   90.1983   14.7439 C.3     1  UNL1        0.0000
     33 C          64.0822   88.9317   15.2653 C.3     1  UNL1        0.0000
     34 C          63.0818   88.9859   16.3816 C.3     1  UNL1        0.0000
     35 C          63.1093   87.9484   17.4645 C.3     1  UNL1        0.0000
     36 C          62.5064   86.5962   17.2232 C.3     1  UNL1        0.0000
     37 C          63.2132   85.6056   16.3462 C.3     1  UNL1        0.0000
     38 C          62.4207   84.6500   15.5043 C.3     1  UNL1        0.0000
     39 C          62.9545   83.2764   15.2247 C.3     1  UNL1        0.0000
     40 C          62.1256   82.2921   14.4539 C.3     1  UNL1        0.0000
     41 C          62.4618   80.1248   13.0610 C.3     1  UNL1        0.0000
     42 C          62.7087   81.5905   13.2632 C.3     1  UNL1        0.0000
@<TRIPOS>BOND
     1    41    42    1
     2    42    40    1
     3    40    39    1
     4    39    38    1
     5    38    37    1
     6    37    36    1
     7    36    35    1
     8    35    34    1
     9    34    33    1
    10    33    32    1
    11    32    31    1
    12    31    30    1
    13    30    29    1
    14    29    28    1
    15    28    27    1
    16    27    26    1
    17    26    25    1
    18    25    24    1
    19    24    23    1
    20    23     1    1
    21     1     2    1
    22     2     3    2
    23     2     4    1
    24     2     6    1
    25     6     7    1
    26     7     8    1
    27     8     9    1
    28     8    10    1
    29    10    11    1
    30    11    12   ar
    31    12    13   ar
    32    13    14   ar
    33    14    15   ar
    34    15    16    1
    35    15    17   ar
    36    17    18   ar
    37    18    19   ar
    38    19    20   ar
    39    20    11   ar
    40    20    14   ar
    41     4     5    1
    42    16    21    1
    43    16    22    1
