@<TRIPOS>MOLECULE
*****
 27 30 0 0 0
SMALL
GASTEIGER

@<TRIPOS>ATOM
      1 C          63.1569   90.4948   13.1897 C.3     1  UNL1        0.2313
      2 C          64.2367   91.9998   10.8298 C.3     1  UNL1        0.0309
      3 C          65.0640   91.8611   12.0734 C.ar    1  UNL1       -0.0208
      4 C          64.5242   91.1086   13.2534 C.ar    1  UNL1        0.0173
      5 C          65.3515   90.9700   14.4969 C.ar    1  UNL1       -0.0010
      6 C          66.7186   91.5838   14.5604 C.ar    1  UNL1       -0.0002
      7 C          67.2585   92.3363   13.3805 C.ar    1  UNL1        0.0012
      8 C          66.4312   92.4750   12.1370 C.ar    1  UNL1        0.0152
      9 C          66.9711   93.2274   10.9570 C.ar    1  UNL1        0.1021
     10 C          67.7849   92.6471    9.8385 C.ar    1  UNL1        0.0411
     11 C          68.1087   93.7534    8.8786 C.ar    1  UNL1        0.0967
     12 N          67.4950   95.0173    9.4039 N.ar    1  UNL1       -0.2474
     13 C          67.5711   96.3690    8.7579 C.3     1  UNL1        0.1538
     14 N          66.7919   94.6923   10.6884 N.ar    1  UNL1       -0.1692
     15 O          63.0078   89.0118   13.0210 O.2     1  UNL1       -0.4720
     16 C          62.3627   88.4588   11.7849 C.2     1  UNL1        0.1604
     17 C          61.7061   89.3838   10.8035 C.2     1  UNL1        0.1241
     18 C          61.0611   88.8308    9.5675 C.2     1  UNL1        0.3255
     19 N          60.4045   89.7559    8.5860 N.pl3   1  UNL1       -0.2459
     20 N          61.0725   87.3526    9.3127 N.2     1  UNL1        0.0061
     21 C          61.7291   86.4275   10.2941 C.2     1  UNL1        0.4144
     22 N          61.8965   84.9370   10.3110 N.2     1  UNL1        0.1040
     23 N          62.6451   84.5689   11.5577 N.2     1  UNL1        0.0724
     24 N          62.9404   85.8319   12.3111 N.2     1  UNL1       -0.1146
     25 C          62.3742   86.9806   11.5302 C.3     1  UNL1        0.2977
     26 H          60.3969   90.7261    8.7532 H       1  UNL1        0.2884
     27 H          59.9811   89.3929    7.7747 H       1  UNL1        0.2884
@<TRIPOS>BOND
     1     2     3    1
     2     3     4   ar
     3     4     1    1
     4     1    15    1
     5    15    16    1
     6    16    17    2
     7    17    18    1
     8    18    19    1
     9    18    20    2
    10    20    21    1
    11    21    22    2
    12    22    23    1
    13    23    24    2
    14    24    25    1
    15     4     5   ar
    16     5     6   ar
    17     6     7   ar
    18     7     8   ar
    19     8     9    1
    20     9    10   ar
    21    10    11   ar
    22    11    12   ar
    23    12    13    1
    24    12    14   ar
    25     8     3   ar
    26    14     9   ar
    27    25    16    1
    28    25    21    1
    29    19    26    1
    30    19    27    1
@<TRIPOS>MOLECULE
*****
 27 30 0 0 0
SMALL
GASTEIGER

@<TRIPOS>ATOM
      1 C          62.5372   90.5717   11.2170 C.3     1  UNL1        0.2313
      2 C          63.3967   88.0670   12.6269 C.3     1  UNL1        0.0309
      3 C          62.4658   87.9854   11.4535 C.ar    1  UNL1       -0.0208
      4 C          62.0360   89.2377   10.7485 C.ar    1  UNL1        0.0173
      5 C          61.1052   89.1561    9.5752 C.ar    1  UNL1       -0.0010
      6 C          60.6041   87.8222    9.1067 C.ar    1  UNL1       -0.0002
      7 C          61.0338   86.5698    9.8117 C.ar    1  UNL1        0.0012
      8 C          61.9646   86.6514   10.9851 C.ar    1  UNL1        0.0152
      9 C          62.3944   85.3991   11.6900 C.ar    1  UNL1        0.1021
     10 C          63.0758   84.2215   11.0585 C.ar    1  UNL1        0.0411
     11 C          63.3207   83.1990   12.1285 C.ar    1  UNL1        0.0967
     12 N          62.7906   83.7448   13.4212 N.ar    1  UNL1       -0.2474
     13 C          62.8267   83.0524   14.7513 C.3     1  UNL1        0.1538
     14 N          62.2181   85.1045   13.1502 N.ar    1  UNL1       -0.1692
     15 O          63.5481   91.3217   10.4012 O.2     1  UNL1       -0.4720
     16 C          64.6521   92.0747   11.0825 C.2     1  UNL1        0.1604
     17 C          65.6344   92.8644   10.2692 C.2     1  UNL1        0.1241
     18 C          66.7383   93.6174   10.9505 C.2     1  UNL1        0.3255
     19 N          67.7206   94.4072   10.1371 N.pl3   1  UNL1       -0.2459
     20 N          66.8601   93.5808   12.4451 N.2     1  UNL1        0.0061
     21 C          65.8778   92.7911   13.2584 C.2     1  UNL1        0.4144
     22 N          65.7465   92.5700   14.7362 N.2     1  UNL1        0.1040
     23 N          64.5613   91.6803   14.9682 N.2     1  UNL1        0.0724
     24 N          63.9602   91.3516   13.6339 N.2     1  UNL1       -0.1146
     25 C          64.7738   92.0380   12.5771 C.3     1  UNL1        0.2977
     26 H          67.6407   94.4313    9.1561 H       1  UNL1        0.2884
     27 H          68.4452   94.9015   10.5842 H       1  UNL1        0.2884
@<TRIPOS>BOND
     1     2     3    1
     2     3     4   ar
     3     4     1    1
     4     1    15    1
     5    15    16    1
     6    16    17    2
     7    17    18    1
     8    18    19    1
     9    18    20    2
    10    20    21    1
    11    21    22    2
    12    22    23    1
    13    23    24    2
    14    24    25    1
    15     4     5   ar
    16     5     6   ar
    17     6     7   ar
    18     7     8   ar
    19     8     9    1
    20     9    10   ar
    21    10    11   ar
    22    11    12   ar
    23    12    13    1
    24    12    14   ar
    25     8     3   ar
    26    14     9   ar
    27    25    16    1
    28    25    21    1
    29    19    26    1
    30    19    27    1
@<TRIPOS>MOLECULE
*****
 27 30 0 0 0
SMALL
GASTEIGER

@<TRIPOS>ATOM
      1 C          61.7982   90.1207   11.2757 C.3     1  UNL1        0.2313
      2 C          63.1296   87.5526   12.0708 C.3     1  UNL1        0.0309
      3 C          62.1711   87.5747   10.9171 C.ar    1  UNL1       -0.0208
      4 C          61.5054   88.8588   10.5196 C.ar    1  UNL1        0.0173
      5 C          60.5470   88.8808    9.3659 C.ar    1  UNL1       -0.0010
      6 C          60.2542   87.6189    8.6099 C.ar    1  UNL1       -0.0002
      7 C          60.9198   86.3348    9.0074 C.ar    1  UNL1        0.0012
      8 C          61.8783   86.3127   10.1611 C.ar    1  UNL1        0.0152
      9 C          62.5439   85.0286   10.5586 C.ar    1  UNL1        0.1021
     10 C          63.4909   84.2283    9.7144 C.ar    1  UNL1        0.0411
     11 C          63.9117   83.0244   10.5043 C.ar    1  UNL1        0.0967
     12 N          63.2249   83.0809   11.8366 N.ar    1  UNL1       -0.2474
     13 C          63.3597   82.0752   12.9413 C.3     1  UNL1        0.1538
     14 N          62.3795   84.3195   11.8702 N.ar    1  UNL1       -0.1692
     15 O          63.1656   90.7339   11.2105 O.2     1  UNL1       -0.4720
     16 C          63.8639   91.1457   12.4726 C.2     1  UNL1        0.1604
     17 C          63.3586   90.6648   13.8005 C.2     1  UNL1        0.1241
     18 C          64.0567   91.0766   15.0625 C.2     1  UNL1        0.3255
     19 N          63.5514   90.5956   16.3905 N.pl3   1  UNL1       -0.2459
     20 N          65.2604   91.9694   14.9968 N.2     1  UNL1        0.0061
     21 C          65.7657   92.4503   13.6689 C.2     1  UNL1        0.4144
     22 N          66.9198   93.3319   13.2937 N.2     1  UNL1        0.1040
     23 N          66.9349   93.4649   11.7997 N.2     1  UNL1        0.0724
     24 N          65.7901   92.6655   11.2515 N.2     1  UNL1       -0.1146
     25 C          65.0675   92.0385   12.4068 C.3     1  UNL1        0.2977
     26 H          62.7614   90.0096   16.4337 H       1  UNL1        0.2884
     27 H          64.0096   90.8659   17.2188 H       1  UNL1        0.2884
@<TRIPOS>BOND
     1     2     3    1
     2     3     4   ar
     3     4     1    1
     4     1    15    1
     5    15    16    1
     6    16    17    2
     7    17    18    1
     8    18    19    1
     9    18    20    2
    10    20    21    1
    11    21    22    2
    12    22    23    1
    13    23    24    2
    14    24    25    1
    15     4     5   ar
    16     5     6   ar
    17     6     7   ar
    18     7     8   ar
    19     8     9    1
    20     9    10   ar
    21    10    11   ar
    22    11    12   ar
    23    12    13    1
    24    12    14   ar
    25     8     3   ar
    26    14     9   ar
    27    25    16    1
    28    25    21    1
    29    19    26    1
    30    19    27    1
@<TRIPOS>MOLECULE
*****
 27 30 0 0 0
SMALL
GASTEIGER

@<TRIPOS>ATOM
      1 C          63.1265   89.3047   11.9538 C.3     1  UNL1        0.2313
      2 C          62.3579   86.4916   11.2496 C.3     1  UNL1        0.0309
      3 C          63.1248   86.7667   12.5092 C.ar    1  UNL1       -0.0208
      4 C          63.5091   88.1732   12.8612 C.ar    1  UNL1        0.0173
      5 C          64.2759   88.4483   14.1207 C.ar    1  UNL1       -0.0010
      6 C          64.6585   87.3169   15.0281 C.ar    1  UNL1       -0.0002
      7 C          64.2742   85.9102   14.6761 C.ar    1  UNL1        0.0012
      8 C          63.5074   85.6352   13.4166 C.ar    1  UNL1        0.0152
      9 C          63.1231   84.2287   13.0645 C.ar    1  UNL1        0.1021
     10 C          63.4252   83.5293   11.7724 C.ar    1  UNL1        0.0411
     11 C          62.8580   82.1429   11.8521 C.ar    1  UNL1        0.0967
     12 N          62.2054   81.9855   13.1934 N.ar    1  UNL1       -0.2474
     13 C          61.5109   80.7550   13.6970 C.3     1  UNL1        0.1538
     14 N          62.3692   83.2745   13.9428 N.ar    1  UNL1       -0.1692
     15 O          63.0604   90.7049   12.4878 O.2     1  UNL1       -0.4720
     16 C          64.2533   91.6074   12.3758 C.2     1  UNL1        0.1604
     17 C          64.6997   92.0969   11.0301 C.2     1  UNL1        0.1241
     18 C          65.8924   92.9994   10.9181 C.2     1  UNL1        0.3255
     19 N          66.3389   93.4890    9.5722 N.pl3   1  UNL1       -0.2459
     20 N          66.6390   93.4124   12.1519 N.2     1  UNL1        0.0061
     21 C          66.1926   92.9229   13.4976 C.2     1  UNL1        0.4144
     22 N          66.7260   93.1598   14.8794 N.2     1  UNL1        0.1040
     23 N          65.8628   92.4036   15.8454 N.2     1  UNL1        0.0724
     24 N          64.7959   91.6994   15.0606 N.2     1  UNL1       -0.1146
     25 C          64.9997   92.0204   13.6096 C.3     1  UNL1        0.2977
     26 H          65.8489   93.2179    8.7625 H       1  UNL1        0.2884
     27 H          67.1218   94.0813    9.4987 H       1  UNL1        0.2884
@<TRIPOS>BOND
     1     2     3    1
     2     3     4   ar
     3     4     1    1
     4     1    15    1
     5    15    16    1
     6    16    17    2
     7    17    18    1
     8    18    19    1
     9    18    20    2
    10    20    21    1
    11    21    22    2
    12    22    23    1
    13    23    24    2
    14    24    25    1
    15     4     5   ar
    16     5     6   ar
    17     6     7   ar
    18     7     8   ar
    19     8     9    1
    20     9    10   ar
    21    10    11   ar
    22    11    12   ar
    23    12    13    1
    24    12    14   ar
    25     8     3   ar
    26    14     9   ar
    27    25    16    1
    28    25    21    1
    29    19    26    1
    30    19    27    1
@<TRIPOS>MOLECULE
*****
 27 30 0 0 0
SMALL
GASTEIGER

@<TRIPOS>ATOM
      1 C          62.0262   89.3730   11.3898 C.3     1  UNL1        0.2313
      2 C          63.5220   91.5534    9.9727 C.3     1  UNL1        0.0309
      3 C          63.9199   91.1515   11.3621 C.ar    1  UNL1       -0.0208
      4 C          63.1720   90.0613   12.0706 C.ar    1  UNL1        0.0173
      5 C          63.5699   89.6594   13.4599 C.ar    1  UNL1       -0.0010
      6 C          64.7156   90.3477   14.1406 C.ar    1  UNL1       -0.0002
      7 C          65.4635   91.4380   13.4321 C.ar    1  UNL1        0.0012
      8 C          65.0656   91.8398   12.0428 C.ar    1  UNL1        0.0152
      9 C          65.8135   92.9300   11.3342 C.ar    1  UNL1        0.1021
     10 C          66.8818   92.7374   10.2990 C.ar    1  UNL1        0.0411
     11 C          67.3530   94.0926    9.8615 C.ar    1  UNL1        0.0967
     12 N          66.5759   95.1228   10.6263 N.ar    1  UNL1       -0.2474
     13 C          66.7242   96.6103   10.5025 C.3     1  UNL1        0.1538
     14 N          65.6245   94.4043   11.5365 N.ar    1  UNL1       -0.1692
     15 O          61.5868   88.0147   11.8502 O.2     1  UNL1       -0.4720
     16 C          62.1581   86.7845   11.2098 C.2     1  UNL1        0.1604
     17 C          62.0909   86.6139    9.7210 C.2     1  UNL1        0.1241
     18 C          62.6621   85.3838    9.0806 C.2     1  UNL1        0.3255
     19 N          62.5950   85.2132    7.5917 N.pl3   1  UNL1       -0.2459
     20 N          63.3006   84.3241    9.9288 N.2     1  UNL1        0.0061
     21 C          63.3678   84.4947   11.4176 C.2     1  UNL1        0.4144
     22 N          63.9318   83.6263   12.5028 N.2     1  UNL1        0.1040
     23 N          63.7091   84.3199   13.8141 N.2     1  UNL1        0.0724
     24 N          63.0074   85.6169   13.5392 N.2     1  UNL1       -0.1146
     25 C          62.7965   85.7249   12.0580 C.3     1  UNL1        0.2977
     26 H          62.1759   85.9086    7.0350 H       1  UNL1        0.2884
     27 H          62.9699   84.4057    7.1714 H       1  UNL1        0.2884
@<TRIPOS>BOND
     1     2     3    1
     2     3     4   ar
     3     4     1    1
     4     1    15    1
     5    15    16    1
     6    16    17    2
     7    17    18    1
     8    18    19    1
     9    18    20    2
    10    20    21    1
    11    21    22    2
    12    22    23    1
    13    23    24    2
    14    24    25    1
    15     4     5   ar
    16     5     6   ar
    17     6     7   ar
    18     7     8   ar
    19     8     9    1
    20     9    10   ar
    21    10    11   ar
    22    11    12   ar
    23    12    13    1
    24    12    14   ar
    25     8     3   ar
    26    14     9   ar
    27    25    16    1
    28    25    21    1
    29    19    26    1
    30    19    27    1
@<TRIPOS>MOLECULE
*****
 27 30 0 0 0
SMALL
GASTEIGER

@<TRIPOS>ATOM
      1 C          62.0885   90.1890   11.8722 C.3     1  UNL1        0.2313
      2 C          63.7293   91.8661   10.0029 C.3     1  UNL1        0.0309
      3 C          64.2088   91.6147   11.4018 C.ar    1  UNL1       -0.0208
      4 C          63.3884   90.7761   12.3365 C.ar    1  UNL1        0.0173
      5 C          63.8678   90.5247   13.7354 C.ar    1  UNL1       -0.0010
      6 C          65.1677   91.1119   14.1996 C.ar    1  UNL1       -0.0002
      7 C          65.9882   91.9505   13.2649 C.ar    1  UNL1        0.0012
      8 C          65.5087   92.2019   11.8660 C.ar    1  UNL1        0.0152
      9 C          66.3292   93.0404   10.9313 C.ar    1  UNL1        0.1021
     10 C          67.4763   92.5602   10.0926 C.ar    1  UNL1        0.0411
     11 C          68.0027   93.7295    9.3142 C.ar    1  UNL1        0.0967
     12 N          67.1808   94.9322    9.6718 N.ar    1  UNL1       -0.2474
     13 C          67.3615   96.3176    9.1258 C.3     1  UNL1        0.1538
     14 N          66.1465   94.5064   10.6713 N.ar    1  UNL1       -0.1692
     15 O          61.7415   88.7704   12.2147 O.2     1  UNL1       -0.4720
     16 C          61.7170   87.7240   11.1403 C.2     1  UNL1        0.1604
     17 C          62.4712   86.4408   11.3257 C.2     1  UNL1        0.1241
     18 C          62.4467   85.3944   10.2514 C.2     1  UNL1        0.3255
     19 N          63.2011   84.1111   10.4369 N.pl3   1  UNL1       -0.2459
     20 N          61.6679   85.6311    8.9914 N.2     1  UNL1        0.0061
     21 C          60.9136   86.9143    8.8059 C.2     1  UNL1        0.4144
     22 N          60.0642   87.4255    7.6803 N.2     1  UNL1        0.1040
     23 N          59.5638   88.7879    8.0590 N.2     1  UNL1        0.0724
     24 N          60.1039   89.1187    9.4187 N.2     1  UNL1       -0.1146
     25 C          60.9381   87.9607    9.8804 C.3     1  UNL1        0.2977
     26 H          63.7122   83.9557   11.2638 H       1  UNL1        0.2884
     27 H          63.1850   83.4243    9.7317 H       1  UNL1        0.2884
@<TRIPOS>BOND
     1     2     3    1
     2     3     4   ar
     3     4     1    1
     4     1    15    1
     5    15    16    1
     6    16    17    2
     7    17    18    1
     8    18    19    1
     9    18    20    2
    10    20    21    1
    11    21    22    2
    12    22    23    1
    13    23    24    2
    14    24    25    1
    15     4     5   ar
    16     5     6   ar
    17     6     7   ar
    18     7     8   ar
    19     8     9    1
    20     9    10   ar
    21    10    11   ar
    22    11    12   ar
    23    12    13    1
    24    12    14   ar
    25     8     3   ar
    26    14     9   ar
    27    25    16    1
    28    25    21    1
    29    19    26    1
    30    19    27    1
@<TRIPOS>MOLECULE
*****
 27 30 0 0 0
SMALL
GASTEIGER

@<TRIPOS>ATOM
      1 C          63.2129   88.8226   12.4637 C.3     1  UNL1        0.2313
      2 C          62.4509   86.0882   11.4928 C.3     1  UNL1        0.0309
      3 C          63.2729   86.2398   12.7385 C.ar    1  UNL1       -0.0208
      4 C          63.6539   87.6069   13.2239 C.ar    1  UNL1        0.0173
      5 C          64.4758   87.7584   14.4695 C.ar    1  UNL1       -0.0010
      6 C          64.9167   86.5428   15.2296 C.ar    1  UNL1       -0.0002
      7 C          64.5357   85.1756   14.7442 C.ar    1  UNL1        0.0012
      8 C          63.7138   85.0241   13.4986 C.ar    1  UNL1        0.0152
      9 C          63.3328   83.6569   13.0132 C.ar    1  UNL1        0.1021
     10 C          63.4933   83.1419   11.6135 C.ar    1  UNL1        0.0411
     11 C          62.9840   81.7314   11.5775 C.ar    1  UNL1        0.0967
     12 N          62.5089   81.3748   12.9548 N.ar    1  UNL1       -0.2474
     13 C          61.9213   80.0591   13.3715 C.3     1  UNL1        0.1538
     14 N          62.7244   82.5648   13.8421 N.ar    1  UNL1       -0.1692
     15 O          62.8521   90.0781   13.2009 O.2     1  UNL1       -0.4720
     16 C          63.9163   91.0774   13.5458 C.2     1  UNL1        0.1604
     17 C          64.2757   91.3252   14.9809 C.2     1  UNL1        0.1241
     18 C          65.3398   92.3244   15.3258 C.2     1  UNL1        0.3255
     19 N          65.6992   92.5722   16.7609 N.pl3   1  UNL1       -0.2459
     20 N          66.0445   93.0761   14.2356 N.2     1  UNL1        0.0061
     21 C          65.6851   92.8284   12.8005 C.2     1  UNL1        0.4144
     22 N          66.2035   93.4139   11.5206 N.2     1  UNL1        0.1040
     23 N          65.4598   92.7764   10.3846 N.2     1  UNL1        0.0724
     24 N          64.4817   91.7969   10.9625 N.2     1  UNL1       -0.1146
     25 C          64.6209   91.8291   12.4557 C.3     1  UNL1        0.2977
     26 H          65.2367   92.0789   17.4765 H       1  UNL1        0.2884
     27 H          66.3976   93.2281   16.9873 H       1  UNL1        0.2884
@<TRIPOS>BOND
     1     2     3    1
     2     3     4   ar
     3     4     1    1
     4     1    15    1
     5    15    16    1
     6    16    17    2
     7    17    18    1
     8    18    19    1
     9    18    20    2
    10    20    21    1
    11    21    22    2
    12    22    23    1
    13    23    24    2
    14    24    25    1
    15     4     5   ar
    16     5     6   ar
    17     6     7   ar
    18     7     8   ar
    19     8     9    1
    20     9    10   ar
    21    10    11   ar
    22    11    12   ar
    23    12    13    1
    24    12    14   ar
    25     8     3   ar
    26    14     9   ar
    27    25    16    1
    28    25    21    1
    29    19    26    1
    30    19    27    1
@<TRIPOS>MOLECULE
*****
 27 30 0 0 0
SMALL
GASTEIGER

@<TRIPOS>ATOM
      1 C          61.4764   86.0453   11.4794 C.3     1  UNL1        0.2313
      2 C          63.4420   88.0173   12.5963 C.3     1  UNL1        0.0309
      3 C          62.5405   88.4154   11.4654 C.ar    1  UNL1       -0.0208
      4 C          61.5577   87.4294   10.9069 C.ar    1  UNL1        0.0173
      5 C          60.6562   87.8275    9.7761 C.ar    1  UNL1       -0.0010
      6 C          60.7375   89.2115    9.2037 C.ar    1  UNL1       -0.0002
      7 C          61.7203   90.1977    9.7621 C.ar    1  UNL1        0.0012
      8 C          62.6218   89.7996   10.8930 C.ar    1  UNL1        0.0152
      9 C          63.6046   90.7856   11.4514 C.ar    1  UNL1        0.1021
     10 C          64.3217   91.8509   10.6764 C.ar    1  UNL1        0.0411
     11 C          65.2032   92.6031   11.6290 C.ar    1  UNL1        0.0967
     12 N          65.0307   92.0027   12.9927 N.ar    1  UNL1       -0.2474
     13 C          65.7244   92.4474   14.2460 C.3     1  UNL1        0.1538
     14 N          64.0427   90.8793   12.8830 N.ar    1  UNL1       -0.1692
     15 O          62.6822   85.1533   11.4588 O.2     1  UNL1       -0.4720
     16 C          63.1072   84.4378   12.7068 C.2     1  UNL1        0.1604
     17 C          63.5882   85.2199   13.8929 C.2     1  UNL1        0.1241
     18 C          64.0132   84.5045   15.1408 C.2     1  UNL1        0.3255
     19 N          64.4942   85.2867   16.3269 N.pl3   1  UNL1       -0.2459
     20 N          63.9572   83.0068   15.2027 N.2     1  UNL1        0.0061
     21 C          63.4762   82.2246   14.0166 C.2     1  UNL1        0.4144
     22 N          63.3127   80.7517   13.7850 N.2     1  UNL1        0.1040
     23 N          62.7866   80.5568   12.3939 N.2     1  UNL1        0.0724
     24 N          62.6250   81.9093   11.7657 N.2     1  UNL1       -0.1146
     25 C          63.0512   82.9401   12.7687 C.3     1  UNL1        0.2977
     26 H          64.5310   86.2697   16.2863 H       1  UNL1        0.2884
     27 H          64.7732   84.8171   17.1460 H       1  UNL1        0.2884
@<TRIPOS>BOND
     1     2     3    1
     2     3     4   ar
     3     4     1    1
     4     1    15    1
     5    15    16    1
     6    16    17    2
     7    17    18    1
     8    18    19    1
     9    18    20    2
    10    20    21    1
    11    21    22    2
    12    22    23    1
    13    23    24    2
    14    24    25    1
    15     4     5   ar
    16     5     6   ar
    17     6     7   ar
    18     7     8   ar
    19     8     9    1
    20     9    10   ar
    21    10    11   ar
    22    11    12   ar
    23    12    13    1
    24    12    14   ar
    25     8     3   ar
    26    14     9   ar
    27    25    16    1
    28    25    21    1
    29    19    26    1
    30    19    27    1
@<TRIPOS>MOLECULE
*****
 27 30 0 0 0
SMALL
GASTEIGER

@<TRIPOS>ATOM
      1 C          62.1398   87.0781   10.8586 C.3     1  UNL1        0.2313
      2 C          63.6426   88.1044   13.2436 C.3     1  UNL1        0.0309
      3 C          63.2340   89.0481   12.1515 C.ar    1  UNL1       -0.0208
      4 C          62.4826   88.5350   10.9590 C.ar    1  UNL1        0.0173
      5 C          62.0741   89.4786    9.8669 C.ar    1  UNL1       -0.0010
      6 C          62.4169   90.9354    9.9673 C.ar    1  UNL1       -0.0002
      7 C          63.1683   91.4486   11.1599 C.ar    1  UNL1        0.0012
      8 C          63.5768   90.5050   12.2519 C.ar    1  UNL1        0.0152
      9 C          64.3282   91.0181   13.4444 C.ar    1  UNL1        0.1021
     10 C          65.8001   91.3009   13.5043 C.ar    1  UNL1        0.0411
     11 C          66.1212   91.7962   14.8833 C.ar    1  UNL1        0.0967
     12 N          64.8478   91.8195   15.6757 N.ar    1  UNL1       -0.2474
     13 C          64.7072   92.2483   17.1062 C.3     1  UNL1        0.1538
     14 N          63.7396   91.3386   14.7864 N.ar    1  UNL1       -0.1692
     15 O          61.8725   86.2832   12.1022 O.2     1  UNL1       -0.4720
     16 C          62.5333   84.9507   12.2972 C.2     1  UNL1        0.1604
     17 C          63.0226   84.1753   11.1101 C.2     1  UNL1        0.1241
     18 C          63.6833   82.8430   11.3050 C.2     1  UNL1        0.3255
     19 N          64.1727   82.0675   10.1178 N.pl3   1  UNL1       -0.2459
     20 N          63.8549   82.2859   12.6872 N.2     1  UNL1        0.0061
     21 C          63.3656   83.0614   13.8744 C.2     1  UNL1        0.4144
     22 N          63.3954   82.7695   15.3454 N.2     1  UNL1        0.1040
     23 N          62.7530   83.9216   16.0595 N.2     1  UNL1        0.0724
     24 N          62.3262   84.9254   15.0299 N.2     1  UNL1       -0.1146
     25 C          62.7048   84.3938   13.6794 C.3     1  UNL1        0.2977
     26 H          64.0601   82.4331    9.2107 H       1  UNL1        0.2884
     27 H          64.6064   81.1930   10.2458 H       1  UNL1        0.2884
@<TRIPOS>BOND
     1     2     3    1
     2     3     4   ar
     3     4     1    1
     4     1    15    1
     5    15    16    1
     6    16    17    2
     7    17    18    1
     8    18    19    1
     9    18    20    2
    10    20    21    1
    11    21    22    2
    12    22    23    1
    13    23    24    2
    14    24    25    1
    15     4     5   ar
    16     5     6   ar
    17     6     7   ar
    18     7     8   ar
    19     8     9    1
    20     9    10   ar
    21    10    11   ar
    22    11    12   ar
    23    12    13    1
    24    12    14   ar
    25     8     3   ar
    26    14     9   ar
    27    25    16    1
    28    25    21    1
    29    19    26    1
    30    19    27    1
