@<TRIPOS>MOLECULE
*****
 27 29 0 0 0
SMALL
GASTEIGER

@<TRIPOS>ATOM
      1 C          63.6890   87.7017   13.4663 C.ar    1  UNL1        0.1345
      2 C          63.9964   89.1501   13.7067 C.ar    1  UNL1        0.0496
      3 C          63.5289   90.1881   12.7301 C.ar    1  UNL1        0.0597
      4 C          62.7540   89.7779   11.5130 C.ar    1  UNL1        0.0899
      5 CL         62.2866   90.8160   10.5364 Cl      1  UNL1       -0.0793
      6 C          62.4466   88.3296   11.2726 C.ar    1  UNL1        0.1129
      7 N          62.9141   87.2914   12.2493 N.ar    1  UNL1       -0.2281
      8 N          64.1565   86.6636   14.4430 N.pl3   1  UNL1       -0.2821
      9 H          64.7208   86.9246   15.2063 H       1  UNL1        0.1551
     10 C          62.9796   82.3564   13.8839 C.ar    1  UNL1        0.1683
     11 C          62.1102   83.2724   14.6931 C.ar    1  UNL1        0.1299
     12 N          62.5025   84.7082   14.8794 N.ar    1  UNL1       -0.2251
     13 C          63.7642   85.2279   14.2566 C.ar    1  UNL1        0.1527
     14 C          64.6337   84.3118   13.4475 C.ar    1  UNL1        0.1340
     15 N          64.2414   82.8760   13.2611 N.ar    1  UNL1       -0.2290
     16 N          62.1951   79.4848   13.5112 N.1     1  UNL1       -0.1892
     17 C          62.5874   80.9206   13.6975 C.1     1  UNL1        0.1214
     18 N          63.8363   91.6365   12.9705 N.pl3   1  UNL1       -0.3299
     19 H          63.1530   92.2261   13.3637 H       1  UNL1        0.1469
     20 C          65.1850   92.1865   12.6118 C.3     1  UNL1        0.1185
     21 C          66.2506   92.3034   13.6610 C.3     1  UNL1        0.1503
     22 C          67.6808   92.0149   13.3128 C.3     1  UNL1        0.1003
     23 N          68.7464   92.1317   14.3619 N.3     1  UNL1       -0.2933
     24 C          68.3818   92.5370   15.7594 C.3     1  UNL1        0.1011
     25 C          66.9515   92.8254   16.1076 C.3     1  UNL1        0.1592
     26 O          65.8859   92.7086   15.0584 O.3     1  UNL1       -0.3516
     27 H          69.4198   92.8185   14.0224 H       1  UNL1        0.1234
@<TRIPOS>BOND
     1    16    17    3
     2    17    10    1
     3    10    11   ar
     4    11    12   ar
     5    12    13   ar
     6    13     8    1
     7     8     1    1
     8     1     2   ar
     9     2     3   ar
    10     3    18    1
    11    18    20    1
    12    21    20    1
    13    21    22    1
    14    22    23    1
    15    23    24    1
    16    24    25    1
    17    25    26    1
    18     3     4   ar
    19     4     5    1
    20     4     6   ar
    21     6     7   ar
    22    13    14   ar
    23    14    15   ar
    24    15    10   ar
    25     7     1   ar
    26    26    21    1
    27     8     9    1
    28    18    19    1
    29    23    27    1
@<TRIPOS>MOLECULE
*****
 27 29 0 0 0
SMALL
GASTEIGER

@<TRIPOS>ATOM
      1 C          63.5293   83.8305   14.4461 C.ar    1  UNL1        0.1345
      2 C          63.1636   84.6410   13.2380 C.ar    1  UNL1        0.0496
      3 C          63.1316   83.9964   11.8840 C.ar    1  UNL1        0.0597
      4 C          63.4654   82.5413   11.7380 C.ar    1  UNL1        0.0899
      5 CL         63.4334   81.8967   10.3839 Cl      1  UNL1       -0.0793
      6 C          63.8312   81.7308   12.9460 C.ar    1  UNL1        0.1129
      7 N          63.8631   82.3754   14.3001 N.ar    1  UNL1       -0.2281
      8 N          63.5613   84.4751   15.8001 N.pl3   1  UNL1       -0.2821
      9 H          63.5882   83.9168   16.6106 H       1  UNL1        0.1551
     10 C          63.5339   88.9608   16.1579 C.ar    1  UNL1        0.1683
     11 C          64.2251   88.3050   14.9994 C.ar    1  UNL1        0.1299
     12 N          64.2342   86.8098   14.8801 N.ar    1  UNL1       -0.2251
     13 C          63.5521   85.9703   15.9194 C.ar    1  UNL1        0.1527
     14 C          62.8610   86.6261   17.0779 C.ar    1  UNL1        0.1340
     15 N          62.8518   88.1213   17.1971 N.ar    1  UNL1       -0.2290
     16 N          63.5157   91.9512   16.3964 N.1     1  UNL1       -0.1892
     17 C          63.5248   90.4560   16.2771 C.1     1  UNL1        0.1214
     18 N          62.7658   84.8069   10.6759 N.pl3   1  UNL1       -0.3299
     19 H          63.3053   84.7381    9.8552 H       1  UNL1        0.1469
     20 C          61.5782   85.7221   10.7183 C.3     1  UNL1        0.1185
     21 C          61.7764   87.2089   10.7095 C.3     1  UNL1        0.1503
     22 C          61.1260   88.0460    9.6483 C.3     1  UNL1        0.1003
     23 N          61.3242   89.5328    9.6396 N.3     1  UNL1       -0.2933
     24 C          62.1730   90.1826   10.6920 C.3     1  UNL1        0.1011
     25 C          62.8234   89.3454   11.7532 C.3     1  UNL1        0.1592
     26 O          62.6251   87.8586   11.7620 O.3     1  UNL1       -0.3516
     27 H          60.3977   89.9538    9.7072 H       1  UNL1        0.1234
@<TRIPOS>BOND
     1    16    17    3
     2    17    10    1
     3    10    11   ar
     4    11    12   ar
     5    12    13   ar
     6    13     8    1
     7     8     1    1
     8     1     2   ar
     9     2     3   ar
    10     3    18    1
    11    18    20    1
    12    21    20    1
    13    21    22    1
    14    22    23    1
    15    23    24    1
    16    24    25    1
    17    25    26    1
    18     3     4   ar
    19     4     5    1
    20     4     6   ar
    21     6     7   ar
    22    13    14   ar
    23    14    15   ar
    24    15    10   ar
    25     7     1   ar
    26    26    21    1
    27     8     9    1
    28    18    19    1
    29    23    27    1
@<TRIPOS>MOLECULE
*****
 27 29 0 0 0
SMALL
GASTEIGER

@<TRIPOS>ATOM
      1 C          62.3774   90.2593   13.0089 C.ar    1  UNL1        0.1345
      2 C          63.3460   91.0206   12.1530 C.ar    1  UNL1        0.0496
      3 C          64.6985   91.3825   12.6911 C.ar    1  UNL1        0.0597
      4 C          65.0825   90.9832   14.0851 C.ar    1  UNL1        0.0899
      5 CL         66.4351   91.3452   14.6232 Cl      1  UNL1       -0.0793
      6 C          64.1140   90.2220   14.9409 C.ar    1  UNL1        0.1129
      7 N          62.7614   89.8600   14.4029 N.ar    1  UNL1       -0.2281
      8 N          61.0248   89.8974   12.4708 N.pl3   1  UNL1       -0.2821
      9 H          60.2152   90.2925   12.8679 H       1  UNL1        0.1551
     10 C          60.6677   87.0056    9.0415 C.ar    1  UNL1        0.1683
     11 C          61.0902   86.5157   10.3948 C.ar    1  UNL1        0.1299
     12 N          61.2092   87.4796   11.5379 N.ar    1  UNL1       -0.2251
     13 C          60.9058   88.9334   11.3277 C.ar    1  UNL1        0.1527
     14 C          60.4833   89.4234    9.9744 C.ar    1  UNL1        0.1340
     15 N          60.3642   88.4594    8.8313 N.ar    1  UNL1       -0.2290
     16 N          60.4296   85.0777    6.7553 N.1     1  UNL1       -0.1892
     17 C          60.5486   86.0416    7.8984 C.1     1  UNL1        0.1214
     18 N          65.6671   92.1437   11.8353 N.pl3   1  UNL1       -0.3299
     19 H          66.1671   91.6795   11.1256 H       1  UNL1        0.1469
     20 C          65.8737   93.6122   12.0608 C.3     1  UNL1        0.1185
     21 C          66.3773   94.4788   10.9449 C.3     1  UNL1        0.1503
     22 C          66.3157   95.9724   11.0689 C.3     1  UNL1        0.1003
     23 N          66.8193   96.8390    9.9530 N.3     1  UNL1       -0.2933
     24 C          67.3846   96.2121    8.7130 C.3     1  UNL1        0.1011
     25 C          67.4463   94.7185    8.5891 C.3     1  UNL1        0.1592
     26 O          66.9426   93.8519    9.7051 O.3     1  UNL1       -0.3516
     27 H          67.5534   97.4282   10.3460 H       1  UNL1        0.1234
@<TRIPOS>BOND
     1    16    17    3
     2    17    10    1
     3    10    11   ar
     4    11    12   ar
     5    12    13   ar
     6    13     8    1
     7     8     1    1
     8     1     2   ar
     9     2     3   ar
    10     3    18    1
    11    18    20    1
    12    21    20    1
    13    21    22    1
    14    22    23    1
    15    23    24    1
    16    24    25    1
    17    25    26    1
    18     3     4   ar
    19     4     5    1
    20     4     6   ar
    21     6     7   ar
    22    13    14   ar
    23    14    15   ar
    24    15    10   ar
    25     7     1   ar
    26    26    21    1
    27     8     9    1
    28    18    19    1
    29    23    27    1
@<TRIPOS>MOLECULE
*****
 27 29 0 0 0
SMALL
GASTEIGER

@<TRIPOS>ATOM
      1 C          64.5836   91.5425   14.0533 C.ar    1  UNL1        0.1345
      2 C          65.5383   91.6296   12.8996 C.ar    1  UNL1        0.0496
      3 C          66.9481   92.0894   13.1258 C.ar    1  UNL1        0.0597
      4 C          67.4031   92.4622   14.5056 C.ar    1  UNL1        0.0899
      5 CL         68.8129   92.9221   14.7318 Cl      1  UNL1       -0.0793
      6 C          66.4484   92.3752   15.6593 C.ar    1  UNL1        0.1129
      7 N          65.0386   91.9153   15.4331 N.ar    1  UNL1       -0.2281
      8 N          63.1739   91.0827   13.8271 N.pl3   1  UNL1       -0.2821
      9 H          62.4452   91.4353   14.3874 H       1  UNL1        0.1551
     10 C          62.2753   88.0912   10.5877 C.ar    1  UNL1        0.1683
     11 C          62.9148   87.6412   11.8677 C.ar    1  UNL1        0.1299
     12 N          63.2143   88.6384   12.9475 N.ar    1  UNL1       -0.2251
     13 C          62.8743   90.0855   12.7473 C.ar    1  UNL1        0.1527
     14 C          62.2349   90.5355   11.4673 C.ar    1  UNL1        0.1340
     15 N          61.9354   89.5384   10.3875 N.ar    1  UNL1       -0.2290
     16 N          61.6763   86.0969    8.4281 N.1     1  UNL1       -0.1892
     17 C          61.9758   87.0941    9.5079 C.1     1  UNL1        0.1214
     18 N          67.9028   92.1765   11.9721 N.pl3   1  UNL1       -0.3299
     19 H          68.8609   91.9980   12.1115 H       1  UNL1        0.1469
     20 C          67.3978   92.5355   10.6061 C.3     1  UNL1        0.1185
     21 C          67.3164   93.9746   10.1909 C.3     1  UNL1        0.1503
     22 C          67.8172   94.3952    8.8410 C.3     1  UNL1        0.1003
     23 N          67.7358   95.8342    8.4258 N.3     1  UNL1       -0.2933
     24 C          67.1535   96.8528    9.3605 C.3     1  UNL1        0.1011
     25 C          66.6527   96.4322   10.7104 C.3     1  UNL1        0.1592
     26 O          66.7341   94.9930   11.1256 O.3     1  UNL1       -0.3516
     27 H          67.1768   95.8635    7.5731 H       1  UNL1        0.1234
@<TRIPOS>BOND
     1    16    17    3
     2    17    10    1
     3    10    11   ar
     4    11    12   ar
     5    12    13   ar
     6    13     8    1
     7     8     1    1
     8     1     2   ar
     9     2     3   ar
    10     3    18    1
    11    18    20    1
    12    21    20    1
    13    21    22    1
    14    22    23    1
    15    23    24    1
    16    24    25    1
    17    25    26    1
    18     3     4   ar
    19     4     5    1
    20     4     6   ar
    21     6     7   ar
    22    13    14   ar
    23    14    15   ar
    24    15    10   ar
    25     7     1   ar
    26    26    21    1
    27     8     9    1
    28    18    19    1
    29    23    27    1
@<TRIPOS>MOLECULE
*****
 27 29 0 0 0
SMALL
GASTEIGER

@<TRIPOS>ATOM
      1 C          61.6357   89.0241   11.4718 C.ar    1  UNL1        0.1345
      2 C          62.1149   87.6221   11.7059 C.ar    1  UNL1        0.0496
      3 C          61.9487   86.5842   10.6358 C.ar    1  UNL1        0.0597
      4 C          61.3032   86.9483    9.3316 C.ar    1  UNL1        0.0899
      5 CL         61.1370   85.9103    8.2615 Cl      1  UNL1       -0.0793
      6 C          60.8240   88.3502    9.0975 C.ar    1  UNL1        0.1129
      7 N          60.9902   89.3882   10.1677 N.ar    1  UNL1       -0.2281
      8 N          61.8019   90.0620   12.5419 N.pl3   1  UNL1       -0.2821
      9 H          61.0129   90.4102   13.0168 H       1  UNL1        0.1551
     10 C          65.9069   91.5843   13.5817 C.ar    1  UNL1        0.1683
     11 C          65.1420   90.7549   14.5701 C.ar    1  UNL1        0.1299
     12 N          63.7736   90.2474   14.2235 N.ar    1  UNL1       -0.2251
     13 C          63.1702   90.5694   12.8885 C.ar    1  UNL1        0.1527
     14 C          63.9352   91.3989   11.9002 C.ar    1  UNL1        0.1340
     15 N          65.3035   91.9063   12.2468 N.ar    1  UNL1       -0.2290
     16 N          68.6436   92.5992   14.2750 N.1     1  UNL1       -0.1892
     17 C          67.2753   92.0917   13.9284 C.1     1  UNL1        0.1214
     18 N          62.4279   85.1822   10.8698 N.pl3   1  UNL1       -0.3299
     19 H          62.3553   84.5111   10.1532 H       1  UNL1        0.1469
     20 C          63.0177   84.8027   12.1958 C.3     1  UNL1        0.1185
     21 C          62.8228   83.4163   12.7342 C.3     1  UNL1        0.1503
     22 C          62.5169   83.2126   14.1885 C.3     1  UNL1        0.1003
     23 N          62.3220   81.8263   14.7269 N.3     1  UNL1       -0.2933
     24 C          62.4329   80.6435   13.8110 C.3     1  UNL1        0.1011
     25 C          62.7388   80.8472   12.3567 C.3     1  UNL1        0.1592
     26 O          62.9337   82.2337   11.8183 O.3     1  UNL1       -0.3516
     27 H          61.3871   81.7971   15.1336 H       1  UNL1        0.1234
@<TRIPOS>BOND
     1    16    17    3
     2    17    10    1
     3    10    11   ar
     4    11    12   ar
     5    12    13   ar
     6    13     8    1
     7     8     1    1
     8     1     2   ar
     9     2     3   ar
    10     3    18    1
    11    18    20    1
    12    21    20    1
    13    21    22    1
    14    22    23    1
    15    23    24    1
    16    24    25    1
    17    25    26    1
    18     3     4   ar
    19     4     5    1
    20     4     6   ar
    21     6     7   ar
    22    13    14   ar
    23    14    15   ar
    24    15    10   ar
    25     7     1   ar
    26    26    21    1
    27     8     9    1
    28    18    19    1
    29    23    27    1
@<TRIPOS>MOLECULE
*****
 27 29 0 0 0
SMALL
GASTEIGER

@<TRIPOS>ATOM
      1 C          62.2158   89.7096   12.0279 C.ar    1  UNL1        0.1345
      2 C          62.7056   88.3641   11.5806 C.ar    1  UNL1        0.0496
      3 C          61.8485   87.5110   10.6931 C.ar    1  UNL1        0.0597
      4 C          60.5017   88.0033   10.2529 C.ar    1  UNL1        0.0899
      5 CL         59.6446   87.1501    9.3654 Cl      1  UNL1       -0.0793
      6 C          60.0119   89.3486   10.7002 C.ar    1  UNL1        0.1129
      7 N          60.8690   90.2018   11.5877 N.ar    1  UNL1       -0.2281
      8 N          63.0729   90.5627   12.9153 N.pl3   1  UNL1       -0.2821
      9 H          63.0020   90.4814   13.8939 H       1  UNL1        0.1551
     10 C          65.9678   93.4938   11.1049 C.ar    1  UNL1        0.1683
     11 C          65.9578   93.2681   12.5877 C.ar    1  UNL1        0.1299
     12 N          64.9928   92.2911   13.1912 N.ar    1  UNL1       -0.2251
     13 C          64.0378   91.5397   12.3118 C.ar    1  UNL1        0.1527
     14 C          64.0478   91.7654   10.8290 C.ar    1  UNL1        0.1340
     15 N          65.0128   92.7424   10.2255 N.ar    1  UNL1       -0.2290
     16 N          67.8978   95.4479    9.8979 N.1     1  UNL1       -0.1892
     17 C          66.9328   94.4708   10.5014 C.1     1  UNL1        0.1214
     18 N          62.3383   86.1656   10.2458 N.pl3   1  UNL1       -0.3299
     19 H          62.8740   86.0850    9.4238 H       1  UNL1        0.1469
     20 C          62.0117   84.9428   11.0510 C.3     1  UNL1        0.1185
     21 C          62.8425   84.5897   12.2489 C.3     1  UNL1        0.1503
     22 C          64.0748   83.7501   12.0859 C.3     1  UNL1        0.1003
     23 N          64.9056   83.3969   13.2837 N.3     1  UNL1       -0.2933
     24 C          64.5041   83.8833   14.6448 C.3     1  UNL1        0.1011
     25 C          63.2718   84.7229   14.8078 C.3     1  UNL1        0.1592
     26 O          62.4410   85.0761   13.6098 O.3     1  UNL1       -0.3516
     27 H          65.8438   83.7561   13.1076 H       1  UNL1        0.1234
@<TRIPOS>BOND
     1    16    17    3
     2    17    10    1
     3    10    11   ar
     4    11    12   ar
     5    12    13   ar
     6    13     8    1
     7     8     1    1
     8     1     2   ar
     9     2     3   ar
    10     3    18    1
    11    18    20    1
    12    21    20    1
    13    21    22    1
    14    22    23    1
    15    23    24    1
    16    24    25    1
    17    25    26    1
    18     3     4   ar
    19     4     5    1
    20     4     6   ar
    21     6     7   ar
    22    13    14   ar
    23    14    15   ar
    24    15    10   ar
    25     7     1   ar
    26    26    21    1
    27     8     9    1
    28    18    19    1
    29    23    27    1
@<TRIPOS>MOLECULE
*****
 27 29 0 0 0
SMALL
GASTEIGER

@<TRIPOS>ATOM
      1 C          61.4527   88.4457   11.1188 C.ar    1  UNL1        0.1345
      2 C          62.1172   87.1095   10.9666 C.ar    1  UNL1        0.0496
      3 C          61.7219   86.1990    9.8420 C.ar    1  UNL1        0.0597
      4 C          60.6621   86.6247    8.8695 C.ar    1  UNL1        0.0899
      5 CL         60.2668   85.7142    7.7449 Cl      1  UNL1       -0.0793
      6 C          59.9976   87.9608    9.0217 C.ar    1  UNL1        0.1129
      7 N          60.3929   88.8714   10.1463 N.ar    1  UNL1       -0.2281
      8 N          61.8480   89.3562   12.2434 N.pl3   1  UNL1       -0.2821
      9 H          61.4213   89.2626   13.1257 H       1  UNL1        0.1551
     10 C          64.9842   92.5153   11.5845 C.ar    1  UNL1        0.1683
     11 C          64.2300   91.9521   10.4166 C.ar    1  UNL1        0.1299
     12 N          63.1846   90.8991   10.6362 N.ar    1  UNL1       -0.2251
     13 C          62.8934   90.4092   12.0237 C.ar    1  UNL1        0.1527
     14 C          63.6476   90.9724   13.1916 C.ar    1  UNL1        0.1340
     15 N          64.6930   92.0254   12.9720 N.ar    1  UNL1       -0.2290
     16 N          67.0750   94.6214   11.1452 N.1     1  UNL1       -0.1892
     17 C          66.0296   93.5683   11.3648 C.1     1  UNL1        0.1214
     18 N          62.3864   84.8628    9.6898 N.pl3   1  UNL1       -0.3299
     19 H          62.1557   84.2822    8.9290 H       1  UNL1        0.1469
     20 C          63.4023   84.4114   10.6968 C.3     1  UNL1        0.1185
     21 C          62.9634   83.6682   11.9236 C.3     1  UNL1        0.1503
     22 C          62.6119   82.2128   11.8331 C.3     1  UNL1        0.1003
     23 N          62.1731   81.4696   13.0599 N.3     1  UNL1       -0.2933
     24 C          62.0856   82.1818   14.3772 C.3     1  UNL1        0.1011
     25 C          62.4371   83.6372   14.4676 C.3     1  UNL1        0.1592
     26 O          62.8760   84.3804   13.2408 O.3     1  UNL1       -0.3516
     27 H          62.8269   80.6969   13.1857 H       1  UNL1        0.1234
@<TRIPOS>BOND
     1    16    17    3
     2    17    10    1
     3    10    11   ar
     4    11    12   ar
     5    12    13   ar
     6    13     8    1
     7     8     1    1
     8     1     2   ar
     9     2     3   ar
    10     3    18    1
    11    18    20    1
    12    21    20    1
    13    21    22    1
    14    22    23    1
    15    23    24    1
    16    24    25    1
    17    25    26    1
    18     3     4   ar
    19     4     5    1
    20     4     6   ar
    21     6     7   ar
    22    13    14   ar
    23    14    15   ar
    24    15    10   ar
    25     7     1   ar
    26    26    21    1
    27     8     9    1
    28    18    19    1
    29    23    27    1
@<TRIPOS>MOLECULE
*****
 27 29 0 0 0
SMALL
GASTEIGER

@<TRIPOS>ATOM
      1 C          64.6364   91.2581   15.0328 C.ar    1  UNL1        0.1345
      2 C          65.5197   91.3862   13.8272 C.ar    1  UNL1        0.0496
      3 C          66.7510   92.2408   13.8870 C.ar    1  UNL1        0.0597
      4 C          67.0990   92.9673   15.1524 C.ar    1  UNL1        0.0899
      5 CL         68.3303   93.8219   15.2122 Cl      1  UNL1       -0.0793
      6 C          66.2157   92.8392   16.3579 C.ar    1  UNL1        0.1129
      7 N          64.9844   91.9845   16.2981 N.ar    1  UNL1       -0.2281
      8 N          63.4052   90.4035   14.9730 N.pl3   1  UNL1       -0.2821
      9 H          62.5193   90.8224   14.8779 H       1  UNL1        0.1551
     10 C          63.7603   85.9247   15.2279 C.ar    1  UNL1        0.1683
     11 C          63.3479   86.7143   16.4347 C.ar    1  UNL1        0.1299
     12 N          63.2295   88.2072   16.3497 N.ar    1  UNL1       -0.2251
     13 C          63.5235   88.9106   15.0579 C.ar    1  UNL1        0.1527
     14 C          63.9360   88.1210   13.8511 C.ar    1  UNL1        0.1340
     15 N          64.0543   86.6281   13.9361 N.ar    1  UNL1       -0.2290
     16 N          63.9971   82.9389   15.3979 N.1     1  UNL1       -0.1892
     17 C          63.8787   84.4318   15.3129 C.1     1  UNL1        0.1214
     18 N          67.6343   92.3690   12.6814 N.pl3   1  UNL1       -0.3299
     19 H          68.6125   92.3985   12.7888 H       1  UNL1        0.1469
     20 C          67.0272   92.4523   11.3123 C.3     1  UNL1        0.1185
     21 C          66.9156   93.7787   10.6208 C.3     1  UNL1        0.1503
     22 C          66.3203   94.9522   11.3409 C.3     1  UNL1        0.1003
     23 N          66.2086   96.2785   10.6494 N.3     1  UNL1       -0.2933
     24 C          66.6923   96.4315    9.2377 C.3     1  UNL1        0.1011
     25 C          67.2876   95.2580    8.5176 C.3     1  UNL1        0.1592
     26 O          67.3993   93.9315    9.2092 O.3     1  UNL1       -0.3516
     27 H          66.7300   96.9496   11.2136 H       1  UNL1        0.1234
@<TRIPOS>BOND
     1    16    17    3
     2    17    10    1
     3    10    11   ar
     4    11    12   ar
     5    12    13   ar
     6    13     8    1
     7     8     1    1
     8     1     2   ar
     9     2     3   ar
    10     3    18    1
    11    18    20    1
    12    21    20    1
    13    21    22    1
    14    22    23    1
    15    23    24    1
    16    24    25    1
    17    25    26    1
    18     3     4   ar
    19     4     5    1
    20     4     6   ar
    21     6     7   ar
    22    13    14   ar
    23    14    15   ar
    24    15    10   ar
    25     7     1   ar
    26    26    21    1
    27     8     9    1
    28    18    19    1
    29    23    27    1
@<TRIPOS>MOLECULE
*****
 27 29 0 0 0
SMALL
GASTEIGER

@<TRIPOS>ATOM
      1 C          64.2747   90.9013   14.2946 C.ar    1  UNL1        0.1345
      2 C          63.5856   90.6467   12.9867 C.ar    1  UNL1        0.0496
      3 C          64.0057   91.3987   11.7587 C.ar    1  UNL1        0.0597
      4 C          65.1149   92.4053   11.8385 C.ar    1  UNL1        0.0899
      5 CL         65.5350   93.1574   10.6105 Cl      1  UNL1       -0.0793
      6 C          65.8040   92.6600   13.1463 C.ar    1  UNL1        0.1129
      7 N          65.3839   91.9079   14.3744 N.ar    1  UNL1       -0.2281
      8 N          63.8546   90.1493   15.5225 N.pl3   1  UNL1       -0.2821
      9 H          63.6337   90.6385   16.3478 H       1  UNL1        0.1551
     10 C          63.6040   85.6571   15.4342 C.ar    1  UNL1        0.1683
     11 C          64.1922   86.3985   14.2704 C.ar    1  UNL1        0.1299
     12 N          64.2757   87.8959   14.2999 N.ar    1  UNL1       -0.2251
     13 C          63.7711   88.6519   15.4931 C.ar    1  UNL1        0.1527
     14 C          63.1829   87.9105   16.6568 C.ar    1  UNL1        0.1340
     15 N          63.0993   86.4131   16.6273 N.ar    1  UNL1       -0.2290
     16 N          63.4369   82.6624   15.3753 N.1     1  UNL1       -0.1892
     17 C          63.5204   84.1597   15.4047 C.1     1  UNL1        0.1214
     18 N          63.3166   91.1441   10.4509 N.pl3   1  UNL1       -0.3299
     19 H          63.8028   91.2745    9.6048 H       1  UNL1        0.1469
     20 C          61.8869   90.6909   10.4323 C.3     1  UNL1        0.1185
     21 C          61.5511   89.2842   10.0340 C.3     1  UNL1        0.1503
     22 C          62.2122   88.1303   10.7278 C.3     1  UNL1        0.1003
     23 N          61.8765   86.7236   10.3296 N.3     1  UNL1       -0.2933
     24 C          60.8796   86.4709    9.2375 C.3     1  UNL1        0.1011
     25 C          60.2186   87.6249    8.5438 C.3     1  UNL1        0.1592
     26 O          60.5544   89.0316    8.9420 O.3     1  UNL1       -0.3516
     27 H          61.5225   86.2576   11.1650 H       1  UNL1        0.1234
@<TRIPOS>BOND
     1    16    17    3
     2    17    10    1
     3    10    11   ar
     4    11    12   ar
     5    12    13   ar
     6    13     8    1
     7     8     1    1
     8     1     2   ar
     9     2     3   ar
    10     3    18    1
    11    18    20    1
    12    21    20    1
    13    21    22    1
    14    22    23    1
    15    23    24    1
    16    24    25    1
    17    25    26    1
    18     3     4   ar
    19     4     5    1
    20     4     6   ar
    21     6     7   ar
    22    13    14   ar
    23    14    15   ar
    24    15    10   ar
    25     7     1   ar
    26    26    21    1
    27     8     9    1
    28    18    19    1
    29    23    27    1
