@<TRIPOS>MOLECULE
*****
 39 43 0 0 0
SMALL
GASTEIGER

@<TRIPOS>ATOM
      1 C          63.5920   90.9978   11.7730 C.3     1  UNL1        0.0823
      2 C          63.9386   91.9242   10.6453 C.3     1  UNL1        0.0470
      3 C          65.1249   92.8349   10.7604 C.3     1  UNL1        0.1133
      4 O          65.4714   93.7612    9.6327 O.3     1  UNL1       -0.3844
      5 C          65.9646   92.8193   12.0032 C.3     1  UNL1        0.0470
      6 C          65.6180   91.8930   13.1309 C.3     1  UNL1        0.0819
      7 N          64.4318   90.9822   13.0158 N.3     1  UNL1       -0.1581
      8 H          64.8330   93.6458    8.9116 H       1  UNL1        0.2103
      9 C          62.4058   90.0871   11.6579 C.3     1  UNL1        0.0238
     10 C          61.3049   91.1025   11.5743 C.3     1  UNL1        0.0019
     11 C          60.9802   89.6387   11.5276 C.3     1  UNL1        0.0019
     12 C          63.0946   88.7553   11.7014 C.3     1  UNL1        0.0866
     13 N          62.6885   83.3896   12.2440 N.3     1  UNL1       -0.2699
     14 C          62.2264   83.7031   10.8519 C.3     1  UNL1        0.0939
     15 C          62.2124   85.1230   10.3682 C.3     1  UNL1        0.1107
     16 N          62.6605   86.2292   11.2767 N.am    1  UNL1       -0.2767
     17 C          62.6465   87.6490   10.7929 C.2     1  UNL1        0.2258
     18 O          62.1844   87.9625    9.4007 O.2     1  UNL1       -0.2749
     19 C          63.1226   85.9157   12.6689 C.3     1  UNL1        0.1107
     20 C          63.1365   84.4958   13.1526 C.3     1  UNL1        0.0939
     21 C          62.9931   81.4979   11.3339 C.3     1  UNL1        0.0186
     22 C          62.7025   81.9698   12.7278 C.3     1  UNL1        0.0726
     23 C          62.4118   82.4418   14.1216 C.3     1  UNL1        0.0186
     24 C          62.7165   80.5500   13.2115 C.3     1  UNL1        0.1516
     25 O          63.5115   80.1801   14.4285 O.3     1  UNL1       -0.3806
     26 H          64.4567   80.2986   14.2456 H       1  UNL1        0.2105
     27 C          66.4577   91.8773   14.3738 C.3     1  UNL1        0.0165
     28 C          66.6745   92.2871   15.8003 C.3     1  UNL1        0.0014
     29 C          67.6954   91.4403   15.0999 C.3     1  UNL1        0.0014
     30 S          64.0851   90.0558   14.1435 S.O2    1  UNL1        0.0632
     31 O          63.2356   91.1265   14.7618 O.2     1  UNL1       -0.1528
     32 O          64.7514   88.9192   13.8492 O.2     1  UNL1       -0.1528
     33 C          63.7384   89.1295   15.2713 C.ar    1  UNL1        0.1222
     34 C          63.1419   89.6761   16.5343 C.ar    1  UNL1        0.0208
     35 C          62.7952   88.7497   17.6621 C.ar    1  UNL1        0.0128
     36 C          63.0450   87.2768   17.5267 C.ar    1  UNL1        0.0578
     37 CL         62.6983   86.3505   18.6543 Cl      1  UNL1       -0.0822
     38 C          63.6415   86.7304   16.2635 C.ar    1  UNL1        0.0128
     39 C          63.9882   87.6567   15.1358 C.ar    1  UNL1        0.0208
@<TRIPOS>BOND
     1    21    22    1
     2    22    23    1
     3    22    24    1
     4    24    25    1
     5    22    13    1
     6    13    14    1
     7    14    15    1
     8    15    16    1
     9    16    17   am
    10    17    18    2
    11    17    12    1
    12    12     9    1
    13     1     9    1
    14     1     2    1
    15     2     3    1
    16     3     4    1
    17     3     5    1
    18     5     6    1
    19     6    27    1
    20    27    28    1
    21    28    29    1
    22     6     7    1
    23     7    30    1
    24    30    31    2
    25    30    32    2
    26    30    33    1
    27    33    34   ar
    28    34    35   ar
    29    35    36   ar
    30    36    37    1
    31    36    38   ar
    32    38    39   ar
    33     9    10    1
    34    10    11    1
    35    16    19    1
    36    19    20    1
    37    20    13    1
    38    11     9    1
    39     7     1    1
    40    39    33   ar
    41    29    27    1
    42    25    26    1
    43     4     8    1
@<TRIPOS>MOLECULE
*****
 39 43 0 0 0
SMALL
GASTEIGER

@<TRIPOS>ATOM
      1 C          60.5934   88.7400    9.6378 C.3     1  UNL1        0.0823
      2 C          59.8659   89.7260    8.7727 C.3     1  UNL1        0.0470
      3 C          59.5285   89.3735    7.3544 C.3     1  UNL1        0.1133
      4 O          58.8009   90.3595    6.4893 O.3     1  UNL1       -0.3844
      5 C          59.9185   88.0349    6.8011 C.3     1  UNL1        0.0470
      6 C          60.6460   87.0489    7.6662 C.3     1  UNL1        0.0819
      7 N          60.9835   87.4014    9.0846 N.3     1  UNL1       -0.1581
      8 H          58.6256   91.1673    6.9968 H       1  UNL1        0.2103
      9 C          60.9309   89.0925   11.0562 C.3     1  UNL1        0.0238
     10 C          59.5522   89.1578   11.6435 C.3     1  UNL1        0.0019
     11 C          60.7489   89.4252   12.5076 C.3     1  UNL1        0.0019
     12 C          62.4268   89.1496   10.9616 C.3     1  UNL1        0.0866
     13 N          65.9106   91.8704   14.0778 N.3     1  UNL1       -0.2699
     14 C          65.6742   92.7288   12.8707 C.3     1  UNL1        0.0939
     15 C          64.7441   92.2631   11.7898 C.3     1  UNL1        0.1107
     16 N          64.0505   90.9392   11.9162 N.am    1  UNL1       -0.2767
     17 C          63.1204   90.4736   10.8353 C.2     1  UNL1        0.2258
     18 O          62.8839   91.3320    9.6281 O.2     1  UNL1       -0.2749
     19 C          64.2869   90.0808   13.1233 C.3     1  UNL1        0.1107
     20 C          65.2171   90.5464   14.2042 C.3     1  UNL1        0.0939
     21 C          68.0034   92.1845   14.2232 C.3     1  UNL1        0.0186
     22 C          66.8407   92.3360   15.1587 C.3     1  UNL1        0.0726
     23 C          65.6779   92.4875   16.0940 C.3     1  UNL1        0.0186
     24 C          67.7708   92.8015   16.2395 C.3     1  UNL1        0.1516
     25 O          68.3804   94.1702   16.1663 O.3     1  UNL1       -0.3806
     26 H          68.9798   94.2168   15.4051 H       1  UNL1        0.2105
     27 C          61.0361   85.7103    7.1130 C.3     1  UNL1        0.0165
     28 C          60.6508   84.3563    6.5953 C.3     1  UNL1        0.0014
     29 C          62.0973   84.7459    6.6727 C.3     1  UNL1        0.0014
     30 S          61.7110   86.4154    9.9498 S.O2    1  UNL1        0.0632
     31 O          62.9626   86.6409    9.1542 O.2     1  UNL1       -0.1528
     32 O          60.7766   86.0037   10.8329 O.2     1  UNL1       -0.1528
     33 C          62.4387   85.4294   10.8149 C.ar    1  UNL1        0.1222
     34 C          62.4335   85.5929   12.3059 C.ar    1  UNL1        0.0208
     35 C          63.1612   84.6069   13.1710 C.ar    1  UNL1        0.0128
     36 C          63.8940   83.4574   12.5451 C.ar    1  UNL1        0.0578
     37 CL         64.6216   82.4715   13.4102 Cl      1  UNL1       -0.0822
     38 C          63.8990   83.2940   11.0541 C.ar    1  UNL1        0.0128
     39 C          63.1714   84.2800   10.1889 C.ar    1  UNL1        0.0208
@<TRIPOS>BOND
     1    21    22    1
     2    22    23    1
     3    22    24    1
     4    24    25    1
     5    22    13    1
     6    13    14    1
     7    14    15    1
     8    15    16    1
     9    16    17   am
    10    17    18    2
    11    17    12    1
    12    12     9    1
    13     1     9    1
    14     1     2    1
    15     2     3    1
    16     3     4    1
    17     3     5    1
    18     5     6    1
    19     6    27    1
    20    27    28    1
    21    28    29    1
    22     6     7    1
    23     7    30    1
    24    30    31    2
    25    30    32    2
    26    30    33    1
    27    33    34   ar
    28    34    35   ar
    29    35    36   ar
    30    36    37    1
    31    36    38   ar
    32    38    39   ar
    33     9    10    1
    34    10    11    1
    35    16    19    1
    36    19    20    1
    37    20    13    1
    38    11     9    1
    39     7     1    1
    40    39    33   ar
    41    29    27    1
    42    25    26    1
    43     4     8    1
@<TRIPOS>MOLECULE
*****
 39 43 0 0 0
SMALL
GASTEIGER

@<TRIPOS>ATOM
      1 C          60.6544   88.8226    9.8038 C.3     1  UNL1        0.0823
      2 C          59.9342   89.8220    8.9480 C.3     1  UNL1        0.0470
      3 C          59.5802   89.4794    7.5312 C.3     1  UNL1        0.1133
      4 O          58.8601   90.4788    6.6754 O.3     1  UNL1       -0.3844
      5 C          59.9465   88.1373    6.9702 C.3     1  UNL1        0.0470
      6 C          60.6666   87.1379    7.8260 C.3     1  UNL1        0.0819
      7 N          61.0206   87.4805    9.2428 N.3     1  UNL1       -0.1581
      8 H          58.7005   91.2873    7.1871 H       1  UNL1        0.2103
      9 C          61.0083   89.1652   11.2206 C.3     1  UNL1        0.0238
     10 C          59.6352   89.2565   11.8174 C.3     1  UNL1        0.0019
     11 C          60.8428   89.4982   12.6738 C.3     1  UNL1        0.0019
     12 C          62.5044   89.1930   11.1159 C.3     1  UNL1        0.0866
     13 N          65.6776   93.5723   11.0626 N.3     1  UNL1       -0.2699
     14 C          65.7024   93.0577   12.4713 C.3     1  UNL1        0.0939
     15 C          64.9153   91.8342   12.8368 C.3     1  UNL1        0.1107
     16 N          64.1034   91.1254   11.7935 N.am    1  UNL1       -0.2767
     17 C          63.3163   89.9019   12.1591 C.2     1  UNL1        0.2258
     18 O          63.3411   89.3873   13.5679 O.2     1  UNL1       -0.2749
     19 C          64.0786   91.6399   10.3848 C.3     1  UNL1        0.1107
     20 C          64.8658   92.8635   10.0193 C.3     1  UNL1        0.0939
     21 C          66.1107   95.4173   12.0154 C.3     1  UNL1        0.0186
     22 C          66.4647   94.7958   10.6970 C.3     1  UNL1        0.0726
     23 C          66.8187   94.1741    9.3786 C.3     1  UNL1        0.0186
     24 C          67.2518   96.0192   10.3315 C.3     1  UNL1        0.1516
     25 O          67.8039   96.1693    8.9449 O.3     1  UNL1       -0.3806
     26 H          68.4788   95.4900    8.7902 H       1  UNL1        0.2105
     27 C          61.0329   85.7958    7.2652 C.3     1  UNL1        0.0165
     28 C          62.0760   84.7847    6.8914 C.3     1  UNL1        0.0014
     29 C          60.6239   84.4822    6.6674 C.3     1  UNL1        0.0014
     30 S          61.7408   86.4811   10.0987 S.O2    1  UNL1        0.0632
     31 O          62.9826   86.6747    9.2798 O.2     1  UNL1       -0.1528
     32 O          60.8133   86.0944   11.0002 O.2     1  UNL1       -0.1528
     33 C          62.4611   85.4817   10.9546 C.ar    1  UNL1        0.1222
     34 C          63.1391   84.3028   10.3218 C.ar    1  UNL1        0.0208
     35 C          63.8594   83.3034   11.1777 C.ar    1  UNL1        0.0128
     36 C          63.9017   83.4830   12.6663 C.ar    1  UNL1        0.0578
     37 CL         64.6219   82.4837   13.5222 Cl      1  UNL1       -0.0822
     38 C          63.2236   84.6619   13.2990 C.ar    1  UNL1        0.0128
     39 C          62.5033   85.6614   12.4431 C.ar    1  UNL1        0.0208
@<TRIPOS>BOND
     1    21    22    1
     2    22    23    1
     3    22    24    1
     4    24    25    1
     5    22    13    1
     6    13    14    1
     7    14    15    1
     8    15    16    1
     9    16    17   am
    10    17    18    2
    11    17    12    1
    12    12     9    1
    13     1     9    1
    14     1     2    1
    15     2     3    1
    16     3     4    1
    17     3     5    1
    18     5     6    1
    19     6    27    1
    20    27    28    1
    21    28    29    1
    22     6     7    1
    23     7    30    1
    24    30    31    2
    25    30    32    2
    26    30    33    1
    27    33    34   ar
    28    34    35   ar
    29    35    36   ar
    30    36    37    1
    31    36    38   ar
    32    38    39   ar
    33     9    10    1
    34    10    11    1
    35    16    19    1
    36    19    20    1
    37    20    13    1
    38    11     9    1
    39     7     1    1
    40    39    33   ar
    41    29    27    1
    42    25    26    1
    43     4     8    1
@<TRIPOS>MOLECULE
*****
 39 43 0 0 0
SMALL
GASTEIGER

@<TRIPOS>ATOM
      1 C          63.4909   90.1146   13.5306 C.3     1  UNL1        0.0823
      2 C          62.3156   89.5689   12.7751 C.3     1  UNL1        0.0470
      3 C          62.0941   89.9643   11.3452 C.3     1  UNL1        0.1133
      4 O          60.9188   89.4186   10.5896 O.3     1  UNL1       -0.3844
      5 C          63.0480   90.9053   10.6708 C.3     1  UNL1        0.0470
      6 C          64.2233   91.4509   11.4264 C.3     1  UNL1        0.0819
      7 N          64.4448   91.0556   12.8563 N.3     1  UNL1       -0.1581
      8 H          60.4077   88.8306   11.1674 H       1  UNL1        0.2103
      9 C          63.7124   89.7192   14.9605 C.3     1  UNL1        0.0238
     10 C          63.2714   90.9764   15.6497 C.3     1  UNL1        0.0019
     11 C          63.7540   89.8082   16.4574 C.3     1  UNL1        0.0019
     12 C          64.2303   88.3247   14.7681 C.3     1  UNL1        0.0866
     13 N          63.0523   83.1525   13.7143 N.3     1  UNL1       -0.2699
     14 C          62.7007   83.3739   15.1555 C.3     1  UNL1        0.0939
     15 C          62.9074   84.7224   15.7793 C.3     1  UNL1        0.1107
     16 N          63.4655   85.8493   14.9617 N.am    1  UNL1       -0.2767
     17 C          63.6721   87.1977   15.5856 C.2     1  UNL1        0.2258
     18 O          63.3205   87.4192   17.0269 O.2     1  UNL1       -0.2749
     19 C          63.8172   85.6279   13.5205 C.3     1  UNL1        0.1107
     20 C          63.6105   84.2794   12.8967 C.3     1  UNL1        0.0939
     21 C          63.9245   82.1011   12.0914 C.3     1  UNL1        0.0186
     22 C          62.8458   81.8040   13.0905 C.3     1  UNL1        0.0726
     23 C          61.7671   81.5071   14.0895 C.3     1  UNL1        0.0186
     24 C          62.6392   80.4557   12.4667 C.3     1  UNL1        0.1516
     25 O          62.2051   79.2961   13.3134 O.3     1  UNL1       -0.3806
     26 H          62.9072   79.0766   13.9456 H       1  UNL1        0.2105
     27 C          65.1772   92.3919   10.7521 C.3     1  UNL1        0.0165
     28 C          66.5185   92.6627   10.1378 C.3     1  UNL1        0.0014
     29 C          65.4879   93.7510   10.1986 C.3     1  UNL1        0.0014
     30 S          65.6201   91.6011   13.6119 S.O2    1  UNL1        0.0632
     31 O          65.0485   92.9838   13.5025 O.2     1  UNL1       -0.1528
     32 O          66.3751   90.5127   13.8720 O.2     1  UNL1       -0.1528
     33 C          66.7954   92.1469   14.3676 C.ar    1  UNL1        0.1222
     34 C          68.1771   92.0219   13.7975 C.ar    1  UNL1        0.0208
     35 C          69.3524   92.5677   14.5533 C.ar    1  UNL1        0.0128
     36 C          69.1458   93.2383   15.8790 C.ar    1  UNL1        0.0578
     37 CL         70.3210   93.7840   16.6346 Cl      1  UNL1       -0.0822
     38 C          67.7640   93.3632   16.4489 C.ar    1  UNL1        0.0128
     39 C          66.5887   92.8175   15.6933 C.ar    1  UNL1        0.0208
@<TRIPOS>BOND
     1    21    22    1
     2    22    23    1
     3    22    24    1
     4    24    25    1
     5    22    13    1
     6    13    14    1
     7    14    15    1
     8    15    16    1
     9    16    17   am
    10    17    18    2
    11    17    12    1
    12    12     9    1
    13     1     9    1
    14     1     2    1
    15     2     3    1
    16     3     4    1
    17     3     5    1
    18     5     6    1
    19     6    27    1
    20    27    28    1
    21    28    29    1
    22     6     7    1
    23     7    30    1
    24    30    31    2
    25    30    32    2
    26    30    33    1
    27    33    34   ar
    28    34    35   ar
    29    35    36   ar
    30    36    37    1
    31    36    38   ar
    32    38    39   ar
    33     9    10    1
    34    10    11    1
    35    16    19    1
    36    19    20    1
    37    20    13    1
    38    11     9    1
    39     7     1    1
    40    39    33   ar
    41    29    27    1
    42    25    26    1
    43     4     8    1
@<TRIPOS>MOLECULE
*****
 39 43 0 0 0
SMALL
GASTEIGER

@<TRIPOS>ATOM
      1 C          64.3248   90.3188   15.0044 C.3     1  UNL1        0.0823
      2 C          65.3130   91.0005   15.9037 C.3     1  UNL1        0.0470
      3 C          66.2320   92.0487   15.3501 C.3     1  UNL1        0.1133
      4 O          67.2202   92.7304   16.2493 O.3     1  UNL1       -0.3844
      5 C          66.1628   92.4153   13.8972 C.3     1  UNL1        0.0470
      6 C          65.1746   91.7336   12.9979 C.3     1  UNL1        0.0819
      7 N          64.2556   90.6854   13.5515 N.3     1  UNL1       -0.1581
      8 H          67.1341   92.3793   17.1495 H       1  UNL1        0.2103
      9 C          63.4057   89.2705   15.5580 C.3     1  UNL1        0.0238
     10 C          62.3344   90.1444   16.1399 C.3     1  UNL1        0.0019
     11 C          62.2254   88.6521   16.2469 C.3     1  UNL1        0.0019
     12 C          64.1578   88.0326   15.1684 C.3     1  UNL1        0.0866
     13 N          63.2206   83.0653   13.2454 N.3     1  UNL1       -0.2699
     14 C          63.0814   82.9675   14.7357 C.3     1  UNL1        0.0939
     15 C          63.2809   84.1850   15.5891 C.3     1  UNL1        0.1107
     16 N          63.6196   85.5001   14.9520 N.am    1  UNL1       -0.2767
     17 C          63.8191   86.7175   15.8054 C.2     1  UNL1        0.2258
     18 O          63.6799   86.6198   17.2957 O.2     1  UNL1       -0.2749
     19 C          63.7588   85.5978   13.4617 C.3     1  UNL1        0.1107
     20 C          63.5593   84.3804   12.6084 C.3     1  UNL1        0.0939
     21 C          63.9520   82.4170   11.3628 C.3     1  UNL1        0.0186
     22 C          63.0211   81.8479   12.3921 C.3     1  UNL1        0.0726
     23 C          62.0902   81.2789   13.4214 C.3     1  UNL1        0.0186
     24 C          62.8216   80.6306   11.5387 C.3     1  UNL1        0.1516
     25 O          63.1725   80.6709   10.0808 O.3     1  UNL1       -0.3806
     26 H          62.5813   81.2887    9.6230 H       1  UNL1        0.2105
     27 C          65.1054   92.1001   11.5451 C.3     1  UNL1        0.0165
     28 C          65.7378   92.7030   10.3258 C.3     1  UNL1        0.0014
     29 C          64.3529   92.1320   10.2478 C.3     1  UNL1        0.0014
     30 S          63.2673   90.0036   12.6523 S.O2    1  UNL1        0.0632
     31 O          62.3386   91.1741   12.7857 O.2     1  UNL1       -0.1528
     32 O          63.8630   88.8331   12.3400 O.2     1  UNL1       -0.1528
     33 C          62.2790   89.3220   11.7531 C.ar    1  UNL1        0.1222
     34 C          62.4287   87.8618   11.4444 C.ar    1  UNL1        0.0208
     35 C          61.4402   87.1802   10.5451 C.ar    1  UNL1        0.0128
     36 C          60.3022   87.9588    9.9547 C.ar    1  UNL1        0.0578
     37 CL         59.3139   87.2772    9.0555 Cl      1  UNL1       -0.0822
     38 C          60.1526   89.4190   10.2635 C.ar    1  UNL1        0.0128
     39 C          61.1410   90.1006   11.1627 C.ar    1  UNL1        0.0208
@<TRIPOS>BOND
     1    21    22    1
     2    22    23    1
     3    22    24    1
     4    24    25    1
     5    22    13    1
     6    13    14    1
     7    14    15    1
     8    15    16    1
     9    16    17   am
    10    17    18    2
    11    17    12    1
    12    12     9    1
    13     1     9    1
    14     1     2    1
    15     2     3    1
    16     3     4    1
    17     3     5    1
    18     5     6    1
    19     6    27    1
    20    27    28    1
    21    28    29    1
    22     6     7    1
    23     7    30    1
    24    30    31    2
    25    30    32    2
    26    30    33    1
    27    33    34   ar
    28    34    35   ar
    29    35    36   ar
    30    36    37    1
    31    36    38   ar
    32    38    39   ar
    33     9    10    1
    34    10    11    1
    35    16    19    1
    36    19    20    1
    37    20    13    1
    38    11     9    1
    39     7     1    1
    40    39    33   ar
    41    29    27    1
    42    25    26    1
    43     4     8    1
@<TRIPOS>MOLECULE
*****
 39 43 0 0 0
SMALL
GASTEIGER

@<TRIPOS>ATOM
      1 C          63.9593   90.9583   12.6453 C.3     1  UNL1        0.0823
      2 C          63.3966   89.9789   13.6323 C.3     1  UNL1        0.0470
      3 C          64.0409   89.8151   14.9769 C.3     1  UNL1        0.1133
      4 O          63.4782   88.8357   15.9638 O.3     1  UNL1       -0.3844
      5 C          65.2479   90.6308   15.3346 C.3     1  UNL1        0.0470
      6 C          65.8106   91.6102   14.3477 C.3     1  UNL1        0.0819
      7 N          65.1663   91.7740   13.0031 N.3     1  UNL1       -0.1581
      8 H          62.7053   88.3951   15.5773 H       1  UNL1        0.2103
      9 C          63.3151   91.1221   11.3007 C.3     1  UNL1        0.0238
     10 C          64.4721   91.6761   10.5232 C.3     1  UNL1        0.0019
     11 C          63.1504   91.4585    9.8482 C.3     1  UNL1        0.0019
     12 C          61.9344   90.6250   11.6110 C.3     1  UNL1        0.0866
     13 N          62.6078   85.2714   11.2430 N.3     1  UNL1       -0.2699
     14 C          61.5565   85.6286   10.2346 C.3     1  UNL1        0.0939
     15 C          61.1253   87.0565   10.0745 C.3     1  UNL1        0.1107
     16 N          61.7455   88.1268   10.9229 N.am    1  UNL1       -0.2767
     17 C          61.3142   89.5546   10.7627 C.2     1  UNL1        0.2258
     18 O          60.2628   89.9119    9.7543 O.2     1  UNL1       -0.2749
     19 C          62.7968   87.7695   11.9313 C.3     1  UNL1        0.1107
     20 C          63.2280   86.3417   12.0914 C.3     1  UNL1        0.0939
     21 C          63.4698   83.8127    9.9667 C.3     1  UNL1        0.0186
     22 C          63.0391   83.8436   11.4031 C.3     1  UNL1        0.0726
     23 C          62.6083   83.8746   12.8396 C.3     1  UNL1        0.0186
     24 C          63.4703   82.4159   11.5632 C.3     1  UNL1        0.1516
     25 O          64.9210   82.0880   11.7582 O.3     1  UNL1       -0.3806
     26 H          65.4151   82.3177   10.9558 H       1  UNL1        0.2105
     27 C          67.0175   92.4258   14.7053 C.3     1  UNL1        0.0165
     28 C          68.5071   92.6012   14.7271 C.3     1  UNL1        0.0014
     29 C          67.6183   93.6635   15.3031 C.3     1  UNL1        0.0014
     30 S          65.7290   92.7534   12.0161 S.O2    1  UNL1        0.0632
     31 O          66.7413   91.7348   11.5825 O.2     1  UNL1       -0.1528
     32 O          64.9676   93.8561   12.1797 O.2     1  UNL1       -0.1528
     33 C          66.2917   93.7327   11.0290 C.ar    1  UNL1        0.1222
     34 C          67.3009   93.2803   10.0157 C.ar    1  UNL1        0.0208
     35 C          67.8636   94.2597    9.0286 C.ar    1  UNL1        0.0128
     36 C          67.4172   95.6915    9.0549 C.ar    1  UNL1        0.0578
     37 CL         67.9799   96.6708    8.0679 Cl      1  UNL1       -0.0822
     38 C          66.4080   96.1438   10.0683 C.ar    1  UNL1        0.0128
     39 C          65.8453   95.1645   11.0554 C.ar    1  UNL1        0.0208
@<TRIPOS>BOND
     1    21    22    1
     2    22    23    1
     3    22    24    1
     4    24    25    1
     5    22    13    1
     6    13    14    1
     7    14    15    1
     8    15    16    1
     9    16    17   am
    10    17    18    2
    11    17    12    1
    12    12     9    1
    13     1     9    1
    14     1     2    1
    15     2     3    1
    16     3     4    1
    17     3     5    1
    18     5     6    1
    19     6    27    1
    20    27    28    1
    21    28    29    1
    22     6     7    1
    23     7    30    1
    24    30    31    2
    25    30    32    2
    26    30    33    1
    27    33    34   ar
    28    34    35   ar
    29    35    36   ar
    30    36    37    1
    31    36    38   ar
    32    38    39   ar
    33     9    10    1
    34    10    11    1
    35    16    19    1
    36    19    20    1
    37    20    13    1
    38    11     9    1
    39     7     1    1
    40    39    33   ar
    41    29    27    1
    42    25    26    1
    43     4     8    1
@<TRIPOS>MOLECULE
*****
 39 43 0 0 0
SMALL
GASTEIGER

@<TRIPOS>ATOM
      1 C          62.1160   86.5551   10.4635 C.3     1  UNL1        0.0823
      2 C          62.0970   86.3592    8.9765 C.3     1  UNL1        0.0470
      3 C          62.7448   85.1494    8.3710 C.3     1  UNL1        0.1133
      4 O          62.7258   84.9536    6.8840 O.3     1  UNL1       -0.3844
      5 C          63.4116   84.1354    9.2526 C.3     1  UNL1        0.0470
      6 C          63.4306   84.3312   10.7396 C.3     1  UNL1        0.0819
      7 N          62.7828   85.5410   11.3451 N.3     1  UNL1       -0.1581
      8 H          62.2590   85.6942    6.4663 H       1  UNL1        0.2103
      9 C          61.4682   87.7649   11.0689 C.3     1  UNL1        0.0238
     10 C          60.0453   87.5335   10.6544 C.3     1  UNL1        0.0019
     11 C          60.4044   88.7485   11.4575 C.3     1  UNL1        0.0019
     12 C          62.6660   88.4166   11.6938 C.3     1  UNL1        0.0866
     13 N          65.9404   92.2172   13.7147 N.3     1  UNL1       -0.2699
     14 C          65.4714   92.7351   12.3874 C.3     1  UNL1        0.0939
     15 C          64.5355   91.9143   11.5503 C.3     1  UNL1        0.1107
     16 N          64.0687   90.5758   12.0406 N.am    1  UNL1       -0.2767
     17 C          63.1329   89.7551   11.2035 C.2     1  UNL1        0.2258
     18 O          62.6638   90.2730    9.8762 O.2     1  UNL1       -0.2749
     19 C          64.5377   90.0579   13.3679 C.3     1  UNL1        0.1107
     20 C          65.4736   90.8787   14.2050 C.3     1  UNL1        0.0939
     21 C          66.5415   94.2514   13.7362 C.3     1  UNL1        0.0186
     22 C          66.8763   93.0379   14.5518 C.3     1  UNL1        0.0726
     23 C          67.2110   91.8243   15.3674 C.3     1  UNL1        0.0186
     24 C          67.8121   93.8585   15.3888 C.3     1  UNL1        0.1516
     25 O          68.9642   93.2012   16.0893 O.3     1  UNL1       -0.3806
     26 H          68.6271   92.5962   16.7684 H       1  UNL1        0.2105
     27 C          64.0973   83.3172   11.6212 C.3     1  UNL1        0.0165
     28 C          64.5660   81.9128   11.8617 C.3     1  UNL1        0.0014
     29 C          64.7835   82.9656   12.9079 C.3     1  UNL1        0.0014
     30 S          62.8017   85.7369   12.8321 S.O2    1  UNL1        0.0632
     31 O          61.6144   84.8301   12.9666 O.2     1  UNL1       -0.1528
     32 O          63.8426   86.5715   13.0385 O.2     1  UNL1       -0.1528
     33 C          62.8205   85.9328   14.3192 C.ar    1  UNL1        0.1222
     34 C          63.5903   87.0736   14.9157 C.ar    1  UNL1        0.0208
     35 C          63.6091   87.2694   16.4028 C.ar    1  UNL1        0.0128
     36 C          62.8581   86.3244   17.2933 C.ar    1  UNL1        0.0578
     37 CL         62.8769   86.5202   18.7803 Cl      1  UNL1       -0.0822
     38 C          62.0884   85.1835   16.6967 C.ar    1  UNL1        0.0128
     39 C          62.0696   84.9877   15.2096 C.ar    1  UNL1        0.0208
@<TRIPOS>BOND
     1    21    22    1
     2    22    23    1
     3    22    24    1
     4    24    25    1
     5    22    13    1
     6    13    14    1
     7    14    15    1
     8    15    16    1
     9    16    17   am
    10    17    18    2
    11    17    12    1
    12    12     9    1
    13     1     9    1
    14     1     2    1
    15     2     3    1
    16     3     4    1
    17     3     5    1
    18     5     6    1
    19     6    27    1
    20    27    28    1
    21    28    29    1
    22     6     7    1
    23     7    30    1
    24    30    31    2
    25    30    32    2
    26    30    33    1
    27    33    34   ar
    28    34    35   ar
    29    35    36   ar
    30    36    37    1
    31    36    38   ar
    32    38    39   ar
    33     9    10    1
    34    10    11    1
    35    16    19    1
    36    19    20    1
    37    20    13    1
    38    11     9    1
    39     7     1    1
    40    39    33   ar
    41    29    27    1
    42    25    26    1
    43     4     8    1
@<TRIPOS>MOLECULE
*****
 39 43 0 0 0
SMALL
GASTEIGER

@<TRIPOS>ATOM
      1 C          63.9544   90.8128   12.6899 C.3     1  UNL1        0.0823
      2 C          63.4411   89.7575   13.6241 C.3     1  UNL1        0.0470
      3 C          64.1707   89.4682   14.9024 C.3     1  UNL1        0.1133
      4 O          63.6574   88.4129   15.8366 O.3     1  UNL1       -0.3844
      5 C          65.4137   90.2342   15.2463 C.3     1  UNL1        0.0470
      6 C          65.9270   91.2895   14.3121 C.3     1  UNL1        0.0819
      7 N          65.1974   91.5788   13.0339 N.3     1  UNL1       -0.1581
      8 H          62.8524   88.0176   15.4669 H       1  UNL1        0.2103
      9 C          63.2248   91.1022   11.4117 C.3     1  UNL1        0.0238
     10 C          64.3844   91.4283   10.5179 C.3     1  UNL1        0.0019
     11 C          62.9858   91.4699    9.9771 C.3     1  UNL1        0.0019
     12 C          61.8117   90.8766   11.8615 C.3     1  UNL1        0.0866
     13 N          61.4182   86.7023    8.4453 N.3     1  UNL1       -0.2699
     14 C          60.1630   87.5043    8.2684 C.3     1  UNL1        0.0939
     15 C          59.9476   88.7484    9.0783 C.3     1  UNL1        0.1107
     16 N          60.9874   89.1904   10.0650 N.am    1  UNL1       -0.2767
     17 C          60.7720   90.4345   10.8748 C.2     1  UNL1        0.2258
     18 O          59.5167   91.2366   10.6980 O.2     1  UNL1       -0.2749
     19 C          62.2426   88.3884   10.2418 C.3     1  UNL1        0.1107
     20 C          62.4580   87.1443    9.4319 C.3     1  UNL1        0.0939
     21 C          63.0133   85.3240    8.2088 C.3     1  UNL1        0.0186
     22 C          61.6337   85.4582    7.6354 C.3     1  UNL1        0.0726
     23 C          60.2541   85.5924    7.0621 C.3     1  UNL1        0.0186
     24 C          61.8492   84.2141    6.8256 C.3     1  UNL1        0.1516
     25 O          60.9471   83.9078    5.6669 O.3     1  UNL1       -0.3806
     26 H          60.0496   83.7361    5.9924 H       1  UNL1        0.2105
     27 C          67.1699   92.0555   14.6560 C.3     1  UNL1        0.0165
     28 C          67.8389   93.1955   15.3651 C.3     1  UNL1        0.0014
     29 C          68.6540   92.2420   14.5426 C.3     1  UNL1        0.0014
     30 S          65.7106   92.6341   12.0996 S.O2    1  UNL1        0.0632
     31 O          66.7071   91.6591   11.5458 O.2     1  UNL1       -0.1528
     32 O          64.9523   93.7153   12.3796 O.2     1  UNL1       -0.1528
     33 C          66.2240   93.6893   11.1652 C.ar    1  UNL1        0.1222
     34 C          67.1350   93.3116   10.0351 C.ar    1  UNL1        0.0208
     35 C          67.6483   94.3669    9.1007 C.ar    1  UNL1        0.0128
     36 C          67.2506   95.7999    9.2966 C.ar    1  UNL1        0.0578
     37 CL         67.7639   96.8551    8.3623 Cl      1  UNL1       -0.0822
     38 C          66.3396   96.1775   10.4268 C.ar    1  UNL1        0.0128
     39 C          65.8262   95.1223   11.3611 C.ar    1  UNL1        0.0208
@<TRIPOS>BOND
     1    21    22    1
     2    22    23    1
     3    22    24    1
     4    24    25    1
     5    22    13    1
     6    13    14    1
     7    14    15    1
     8    15    16    1
     9    16    17   am
    10    17    18    2
    11    17    12    1
    12    12     9    1
    13     1     9    1
    14     1     2    1
    15     2     3    1
    16     3     4    1
    17     3     5    1
    18     5     6    1
    19     6    27    1
    20    27    28    1
    21    28    29    1
    22     6     7    1
    23     7    30    1
    24    30    31    2
    25    30    32    2
    26    30    33    1
    27    33    34   ar
    28    34    35   ar
    29    35    36   ar
    30    36    37    1
    31    36    38   ar
    32    38    39   ar
    33     9    10    1
    34    10    11    1
    35    16    19    1
    36    19    20    1
    37    20    13    1
    38    11     9    1
    39     7     1    1
    40    39    33   ar
    41    29    27    1
    42    25    26    1
    43     4     8    1
