@<TRIPOS>MOLECULE
*****
 28 29 0 0 0
SMALL
GASTEIGER

@<TRIPOS>ATOM
      1 N          62.4880   90.0970   12.9490 N.pl3   1  UNL1       -0.2609
      2 H          61.6658   90.3283   13.4385 H       1  UNL1        0.2588
      3 N          64.3488   91.8602   12.5262 N.pl3   1  UNL1        0.0107
      4 C          63.7935   90.7263   13.3361 C.cat   1  UNL1        0.4029
      5 N          66.9597   93.1188   13.3002 N.1     1  UNL1       -0.1505
      6 C          65.6542   92.4895   12.9132 C.1     1  UNL1        0.2954
      7 N          64.5437   90.2216   14.5329 N.pl3   1  UNL1       -0.2412
      8 H          65.3295   90.7132   14.8646 H       1  UNL1        0.2649
      9 C          64.0966   88.9678   15.2245 C.ar    1  UNL1        0.1199
     10 C          64.4627   87.6278   14.6586 C.ar    1  UNL1        0.0541
     11 C          64.0156   86.3741   15.3502 C.ar    1  UNL1        0.1018
     12 N          63.2023   86.4605   16.6076 N.ar    1  UNL1       -0.2421
     13 C          62.8362   87.8005   17.1735 C.ar    1  UNL1        0.1018
     14 C          63.2833   89.0541   16.4819 C.ar    1  UNL1        0.0541
     15 C          62.4353   89.1153   11.8161 C.3     1  UNL1        0.1740
     16 C          62.2124   89.5994   10.4140 C.3     1  UNL1        0.0428
     17 C          60.8660   89.4425    9.7715 C.3     1  UNL1        0.0037
     18 C          60.0586   88.2022   10.0155 C.3     1  UNL1        0.0039
     19 C          59.7014   87.3024    8.8697 C.3     1  UNL1        0.0473
     20 C          60.6856   86.2799    8.3840 C.3     1  UNL1        0.2054
     21 O          62.1171   86.3469    8.8272 O.3     1  UNL1       -0.4755
     22 C          62.6537   85.3264    9.7867 C.ar    1  UNL1        0.1386
     23 C          63.5416   84.2241    9.2902 C.ar    1  UNL1        0.0378
     24 C          64.0783   83.2036   10.2497 C.ar    1  UNL1        0.0145
     25 C          63.7270   83.2855   11.7057 C.ar    1  UNL1        0.0579
     26 CL         64.2637   82.2650   12.6652 Cl      1  UNL1       -0.0822
     27 C          62.8391   84.3878   12.2022 C.ar    1  UNL1        0.0145
     28 C          62.3025   85.4082   11.2427 C.ar    1  UNL1        0.0378
@<TRIPOS>BOND
     1     5     6    3
     2     6     3    1
     3     3     4    2
     4     4     1    1
     5     1    15    1
     6    15    16    1
     7    16    17    1
     8    17    18    1
     9    18    19    1
    10    19    20    1
    11    20    21    1
    12    21    22    1
    13    22    23   ar
    14    23    24   ar
    15    24    25   ar
    16    25    26    1
    17    25    27   ar
    18    27    28   ar
    19     4     7    1
    20     7     9    1
    21     9    10   ar
    22    10    11   ar
    23    11    12   ar
    24    12    13   ar
    25    13    14   ar
    26    28    22   ar
    27    14     9   ar
    28     1     2    1
    29     7     8    1
@<TRIPOS>MOLECULE
*****
 28 29 0 0 0
SMALL
GASTEIGER

@<TRIPOS>ATOM
      1 N          63.2276   88.4951   12.3807 N.pl3   1  UNL1       -0.2609
      2 H          63.7632   87.6850   12.5423 H       1  UNL1        0.2588
      3 N          63.4427   89.4181   14.7998 N.pl3   1  UNL1        0.0107
      4 C          63.3228   89.6576   13.3239 C.cat   1  UNL1        0.4029
      5 N          63.6329   91.7430   16.6863 N.1     1  UNL1       -0.1505
      6 C          63.5378   90.5805   15.7430 C.1     1  UNL1        0.2954
      7 N          63.2981   91.0596   12.7912 N.pl3   1  UNL1       -0.2412
      8 H          62.4437   91.5432   12.7175 H       1  UNL1        0.2649
      9 C          64.5751   91.7249   12.3709 C.ar    1  UNL1        0.1199
     10 C          65.6575   91.9749   13.3788 C.ar    1  UNL1        0.0541
     11 C          66.9345   92.6402   12.9585 C.ar    1  UNL1        0.1018
     12 N          67.1291   93.0553   11.5303 N.ar    1  UNL1       -0.2421
     13 C          66.0467   92.8053   10.5224 C.ar    1  UNL1        0.1018
     14 C          64.7697   92.1401   10.9427 C.ar    1  UNL1        0.0541
     15 C          62.3165   88.5669   11.1914 C.3     1  UNL1        0.1740
     16 C          61.2071   87.5695   11.0352 C.3     1  UNL1        0.0428
     17 C          61.5201   86.1040   10.9681 C.3     1  UNL1        0.0037
     18 C          62.4539   85.5839    9.9159 C.3     1  UNL1        0.0039
     19 C          63.2509   84.3388   10.1696 C.3     1  UNL1        0.0473
     20 C          63.0551   83.5692   11.4422 C.3     1  UNL1        0.2054
     21 O          64.0850   83.6445   12.5302 O.3     1  UNL1       -0.4755
     22 C          63.7545   84.3151   13.8307 C.ar    1  UNL1        0.1386
     23 C          62.5902   83.8368   14.6465 C.ar    1  UNL1        0.0378
     24 C          62.2599   84.5074   15.9469 C.ar    1  UNL1        0.0145
     25 C          63.0937   85.6563   16.4315 C.ar    1  UNL1        0.0579
     26 CL         62.7633   86.3268   17.7320 Cl      1  UNL1       -0.0822
     27 C          64.2580   86.1345   15.6156 C.ar    1  UNL1        0.0145
     28 C          64.5884   85.4639   14.3152 C.ar    1  UNL1        0.0378
@<TRIPOS>BOND
     1     5     6    3
     2     6     3    1
     3     3     4    2
     4     4     1    1
     5     1    15    1
     6    15    16    1
     7    16    17    1
     8    17    18    1
     9    18    19    1
    10    19    20    1
    11    20    21    1
    12    21    22    1
    13    22    23   ar
    14    23    24   ar
    15    24    25   ar
    16    25    26    1
    17    25    27   ar
    18    27    28   ar
    19     4     7    1
    20     7     9    1
    21     9    10   ar
    22    10    11   ar
    23    11    12   ar
    24    12    13   ar
    25    13    14   ar
    26    28    22   ar
    27    14     9   ar
    28     1     2    1
    29     7     8    1
@<TRIPOS>MOLECULE
*****
 28 29 0 0 0
SMALL
GASTEIGER

@<TRIPOS>ATOM
      1 N          62.6354   88.9731   12.3075 N.pl3   1  UNL1       -0.2609
      2 H          62.3391   88.0884   12.6219 H       1  UNL1        0.2588
      3 N          63.0556   89.7138   14.7620 N.pl3   1  UNL1        0.0107
      4 C          62.9960   90.0394   13.2990 C.cat   1  UNL1        0.4029
      5 N          63.7768   91.8462   16.7452 N.1     1  UNL1       -0.1505
      6 C          63.4162   90.7800   15.7536 C.1     1  UNL1        0.2954
      7 N          63.2969   91.4311   12.8275 N.pl3   1  UNL1       -0.2412
      8 H          62.5740   92.0963   12.7637 H       1  UNL1        0.2649
      9 C          64.6994   91.8094   12.4532 C.ar    1  UNL1        0.1199
     10 C          65.0136   92.2275   11.0474 C.ar    1  UNL1        0.0541
     11 C          66.4161   92.6057   10.6732 C.ar    1  UNL1        0.1018
     12 N          67.5042   92.5660   11.7048 N.ar    1  UNL1       -0.2421
     13 C          67.1900   92.1480   13.1107 C.ar    1  UNL1        0.1018
     14 C          65.7876   91.7697   13.4849 C.ar    1  UNL1        0.0541
     15 C          62.7261   89.2547   10.8370 C.3     1  UNL1        0.1740
     16 C          61.5803   89.9131   10.1274 C.3     1  UNL1        0.0428
     17 C          60.1895   89.3745   10.2879 C.3     1  UNL1        0.0037
     18 C          59.9520   87.8936   10.2695 C.3     1  UNL1        0.0039
     19 C          59.7050   87.1898    8.9681 C.3     1  UNL1        0.0473
     20 C          60.7926   86.3685    8.3413 C.3     1  UNL1        0.2054
     21 O          62.1881   86.4294    8.8879 O.3     1  UNL1       -0.4755
     22 C          62.6818   85.3506    9.8058 C.ar    1  UNL1        0.1386
     23 C          63.5180   84.2294    9.2639 C.ar    1  UNL1        0.0378
     24 C          64.0117   83.1507   10.1818 C.ar    1  UNL1        0.0145
     25 C          63.6692   83.1931   11.6415 C.ar    1  UNL1        0.0579
     26 CL         64.1629   82.1143   12.5594 Cl      1  UNL1       -0.0822
     27 C          62.8330   84.3142   12.1834 C.ar    1  UNL1        0.0145
     28 C          62.3393   85.3930   11.2656 C.ar    1  UNL1        0.0378
@<TRIPOS>BOND
     1     5     6    3
     2     6     3    1
     3     3     4    2
     4     4     1    1
     5     1    15    1
     6    15    16    1
     7    16    17    1
     8    17    18    1
     9    18    19    1
    10    19    20    1
    11    20    21    1
    12    21    22    1
    13    22    23   ar
    14    23    24   ar
    15    24    25   ar
    16    25    26    1
    17    25    27   ar
    18    27    28   ar
    19     4     7    1
    20     7     9    1
    21     9    10   ar
    22    10    11   ar
    23    11    12   ar
    24    12    13   ar
    25    13    14   ar
    26    28    22   ar
    27    14     9   ar
    28     1     2    1
    29     7     8    1
@<TRIPOS>MOLECULE
*****
 28 29 0 0 0
SMALL
GASTEIGER

@<TRIPOS>ATOM
      1 N          64.5225   92.0237   12.0395 N.pl3   1  UNL1       -0.2609
      2 H          64.2104   92.3716   11.1730 H       1  UNL1        0.2588
      3 N          66.6124   91.7716   13.5623 N.pl3   1  UNL1        0.0107
      4 C          65.7307   92.6222   12.6968 C.cat   1  UNL1        0.4029
      5 N          69.0289   92.9685   14.8768 N.1     1  UNL1       -0.1505
      6 C          67.8206   92.3700   14.2195 C.1     1  UNL1        0.2954
      7 N          66.0573   94.0713   12.4885 N.pl3   1  UNL1       -0.2412
      8 H          66.0653   94.6892   13.2549 H       1  UNL1        0.2649
      9 C          66.3718   94.5790   11.1125 C.ar    1  UNL1        0.1199
     10 C          67.1904   93.7433   10.1736 C.ar    1  UNL1        0.0541
     11 C          67.5049   94.2510    8.7977 C.ar    1  UNL1        0.1018
     12 N          67.0008   95.5945    8.3606 N.ar    1  UNL1       -0.2421
     13 C          66.1822   96.4302    9.2994 C.ar    1  UNL1        0.1018
     14 C          65.8677   95.9225   10.6754 C.ar    1  UNL1        0.0541
     15 C          63.7897   90.8952   12.7025 C.3     1  UNL1        0.1740
     16 C          63.1955   89.7964   11.8722 C.3     1  UNL1        0.0428
     17 C          62.7414   90.0774   10.4704 C.3     1  UNL1        0.0037
     18 C          61.2765   90.1656   10.1600 C.3     1  UNL1        0.0039
     19 C          60.2650   89.8070   11.2078 C.3     1  UNL1        0.0473
     20 C          59.7966   88.3885   11.3438 C.3     1  UNL1        0.2054
     21 O          60.7888   87.2642   11.3068 O.3     1  UNL1       -0.4755
     22 C          61.1093   86.5892   10.0061 C.ar    1  UNL1        0.1386
     23 C          60.1085   86.6001    8.8889 C.ar    1  UNL1        0.0378
     24 C          60.4290   85.9251    7.5883 C.ar    1  UNL1        0.0145
     25 C          61.7504   85.2392    7.4049 C.ar    1  UNL1        0.0579
     26 CL         62.0708   84.5642    6.1042 Cl      1  UNL1       -0.0822
     27 C          62.7512   85.2283    8.5221 C.ar    1  UNL1        0.0145
     28 C          62.4307   85.9033    9.8227 C.ar    1  UNL1        0.0378
@<TRIPOS>BOND
     1     5     6    3
     2     6     3    1
     3     3     4    2
     4     4     1    1
     5     1    15    1
     6    15    16    1
     7    16    17    1
     8    17    18    1
     9    18    19    1
    10    19    20    1
    11    20    21    1
    12    21    22    1
    13    22    23   ar
    14    23    24   ar
    15    24    25   ar
    16    25    26    1
    17    25    27   ar
    18    27    28   ar
    19     4     7    1
    20     7     9    1
    21     9    10   ar
    22    10    11   ar
    23    11    12   ar
    24    12    13   ar
    25    13    14   ar
    26    28    22   ar
    27    14     9   ar
    28     1     2    1
    29     7     8    1
@<TRIPOS>MOLECULE
*****
 28 29 0 0 0
SMALL
GASTEIGER

@<TRIPOS>ATOM
      1 N          63.8975   88.4754   13.5325 N.pl3   1  UNL1       -0.2609
      2 H          64.2877   87.7233   13.0311 H       1  UNL1        0.2588
      3 N          61.8238   88.8834   12.0214 N.pl3   1  UNL1        0.0107
      4 C          62.9517   89.4201   12.8520 C.cat   1  UNL1        0.4029
      5 N          59.9321   90.7727   10.6604 N.1     1  UNL1       -0.1505
      6 C          60.8780   89.8281   11.3409 C.1     1  UNL1        0.2954
      7 N          63.1338   90.9014   13.0021 N.pl3   1  UNL1       -0.2412
      8 H          62.4111   91.4499   13.3843 H       1  UNL1        0.2649
      9 C          64.4169   91.5470   12.5697 C.ar    1  UNL1        0.1199
     10 C          64.6071   91.9531   11.1384 C.ar    1  UNL1        0.0541
     11 C          65.8902   92.5986   10.7061 C.ar    1  UNL1        0.1018
     12 N          66.9831   92.8380   11.7052 N.ar    1  UNL1       -0.2421
     13 C          66.7929   92.4320   13.1366 C.ar    1  UNL1        0.1018
     14 C          65.5098   91.7864   13.5689 C.ar    1  UNL1        0.0541
     15 C          64.2489   88.6766   14.9768 C.3     1  UNL1        0.1740
     16 C          63.1618   88.7991   16.0030 C.3     1  UNL1        0.0428
     17 C          63.1568   87.8973   17.2017 C.3     1  UNL1        0.0037
     18 C          62.7565   86.4591   17.0565 C.3     1  UNL1        0.0039
     19 C          63.5569   85.5427   16.1794 C.3     1  UNL1        0.0473
     20 C          62.8592   84.6145   15.2298 C.3     1  UNL1        0.2054
     21 O          63.6562   83.8074   14.2482 O.3     1  UNL1       -0.4755
     22 C          63.5102   84.0590   12.7766 C.ar    1  UNL1        0.1386
     23 C          64.2532   83.2051   11.7924 C.ar    1  UNL1        0.0378
     24 C          64.1072   83.4567   10.3210 C.ar    1  UNL1        0.0145
     25 C          63.2182   84.5622    9.8337 C.ar    1  UNL1        0.0579
     26 CL         63.0722   84.8138    8.3621 Cl      1  UNL1       -0.0822
     27 C          62.4752   85.4162   10.8179 C.ar    1  UNL1        0.0145
     28 C          62.6212   85.1646   12.2893 C.ar    1  UNL1        0.0378
@<TRIPOS>BOND
     1     5     6    3
     2     6     3    1
     3     3     4    2
     4     4     1    1
     5     1    15    1
     6    15    16    1
     7    16    17    1
     8    17    18    1
     9    18    19    1
    10    19    20    1
    11    20    21    1
    12    21    22    1
    13    22    23   ar
    14    23    24   ar
    15    24    25   ar
    16    25    26    1
    17    25    27   ar
    18    27    28   ar
    19     4     7    1
    20     7     9    1
    21     9    10   ar
    22    10    11   ar
    23    11    12   ar
    24    12    13   ar
    25    13    14   ar
    26    28    22   ar
    27    14     9   ar
    28     1     2    1
    29     7     8    1
@<TRIPOS>MOLECULE
*****
 28 29 0 0 0
SMALL
GASTEIGER

@<TRIPOS>ATOM
      1 N          62.1557   86.9322   11.3725 N.pl3   1  UNL1       -0.2609
      2 H          62.8597   86.8059   12.0491 H       1  UNL1        0.2588
      3 N          60.1766   88.5542   11.8221 N.pl3   1  UNL1        0.0107
      4 C          61.5133   88.2767   11.2005 C.cat   1  UNL1        0.4029
      5 N          58.8916   91.2432   11.4781 N.1     1  UNL1       -0.1505
      6 C          59.5341   89.8987   11.6501 C.1     1  UNL1        0.2954
      7 N          62.2075   89.3437   10.4071 N.pl3   1  UNL1       -0.2412
      8 H          62.0718   89.4000    9.4336 H       1  UNL1        0.2649
      9 C          63.1084   90.3249   11.0968 C.ar    1  UNL1        0.1199
     10 C          63.3274   90.2294   12.5776 C.ar    1  UNL1        0.0541
     11 C          64.2282   91.2106   13.2673 C.ar    1  UNL1        0.1018
     12 N          64.9100   92.2873   12.4761 N.ar    1  UNL1       -0.2421
     13 C          64.6910   92.3828   10.9953 C.ar    1  UNL1        0.1018
     14 C          63.7902   91.4016   10.3057 C.ar    1  UNL1        0.0541
     15 C          61.7256   85.7801   10.5137 C.3     1  UNL1        0.1740
     16 C          62.7437   85.0129    9.7232 C.3     1  UNL1        0.0428
     17 C          63.5522   83.9369   10.3854 C.3     1  UNL1        0.0037
     18 C          63.0813   83.3308   11.6742 C.3     1  UNL1        0.0039
     19 C          63.9610   83.3731   12.8884 C.3     1  UNL1        0.0473
     20 C          63.3494   83.3725   14.2581 C.3     1  UNL1        0.2054
     21 O          64.0749   84.0136   15.4037 O.3     1  UNL1       -0.4755
     22 C          63.8596   85.4664   15.7091 C.ar    1  UNL1        0.1386
     23 C          63.0651   85.8694   16.9158 C.ar    1  UNL1        0.0378
     24 C          62.8499   87.3221   17.2211 C.ar    1  UNL1        0.0145
     25 C          63.4291   88.3718   16.3197 C.ar    1  UNL1        0.0579
     26 CL         63.2138   89.8246   16.6251 Cl      1  UNL1       -0.0822
     27 C          64.2236   87.9688   15.1129 C.ar    1  UNL1        0.0145
     28 C          64.4388   86.5161   14.8076 C.ar    1  UNL1        0.0378
@<TRIPOS>BOND
     1     5     6    3
     2     6     3    1
     3     3     4    2
     4     4     1    1
     5     1    15    1
     6    15    16    1
     7    16    17    1
     8    17    18    1
     9    18    19    1
    10    19    20    1
    11    20    21    1
    12    21    22    1
    13    22    23   ar
    14    23    24   ar
    15    24    25   ar
    16    25    26    1
    17    25    27   ar
    18    27    28   ar
    19     4     7    1
    20     7     9    1
    21     9    10   ar
    22    10    11   ar
    23    11    12   ar
    24    12    13   ar
    25    13    14   ar
    26    28    22   ar
    27    14     9   ar
    28     1     2    1
    29     7     8    1
@<TRIPOS>MOLECULE
*****
 28 29 0 0 0
SMALL
GASTEIGER

@<TRIPOS>ATOM
      1 N          64.2932   91.7209   12.6684 N.pl3   1  UNL1       -0.2609
      2 H          63.8225   92.0473   11.8677 H       1  UNL1        0.2588
      3 N          66.5610   91.5806   13.9284 N.pl3   1  UNL1        0.0107
      4 C          65.5882   92.3520   13.0866 C.cat   1  UNL1        0.4029
      5 N          69.1509   92.8427   14.7648 N.1     1  UNL1       -0.1505
      6 C          67.8559   92.2116   14.3466 C.1     1  UNL1        0.2954
      7 N          65.9102   93.7544   12.6632 N.pl3   1  UNL1       -0.2412
      8 H          65.7439   94.5049   13.2783 H       1  UNL1        0.2649
      9 C          66.4857   94.0135   11.3023 C.ar    1  UNL1        0.1199
     10 C          67.2120   92.9213   10.5748 C.ar    1  UNL1        0.0541
     11 C          67.7874   93.1804    9.2140 C.ar    1  UNL1        0.1018
     12 N          67.6366   94.5318    8.5808 N.ar    1  UNL1       -0.2421
     13 C          66.9103   95.6241    9.3084 C.ar    1  UNL1        0.1018
     14 C          66.3349   95.3650   10.6692 C.ar    1  UNL1        0.0541
     15 C          63.7155   90.5925   13.4701 C.3     1  UNL1        0.1740
     16 C          63.4702   89.2616   12.8232 C.3     1  UNL1        0.0428
     17 C          62.7521   89.1878   11.5083 C.3     1  UNL1        0.0037
     18 C          61.4980   89.9819   11.2930 C.3     1  UNL1        0.0039
     19 C          60.6128   89.6823   10.1197 C.3     1  UNL1        0.0473
     20 C          60.0977   88.2899    9.9049 C.3     1  UNL1        0.2054
     21 O          60.7695   87.3863    8.9139 O.3     1  UNL1       -0.4755
     22 C          61.6640   86.2813    9.3925 C.ar    1  UNL1        0.1386
     23 C          61.6265   85.8556   10.8303 C.ar    1  UNL1        0.0378
     24 C          62.5210   84.7507   11.3089 C.ar    1  UNL1        0.0145
     25 C          63.4529   84.0715   10.3496 C.ar    1  UNL1        0.0579
     26 CL         64.3475   82.9666   10.8283 Cl      1  UNL1       -0.0822
     27 C          63.4904   84.4972    8.9118 C.ar    1  UNL1        0.0145
     28 C          62.5959   85.6021    8.4333 C.ar    1  UNL1        0.0378
@<TRIPOS>BOND
     1     5     6    3
     2     6     3    1
     3     3     4    2
     4     4     1    1
     5     1    15    1
     6    15    16    1
     7    16    17    1
     8    17    18    1
     9    18    19    1
    10    19    20    1
    11    20    21    1
    12    21    22    1
    13    22    23   ar
    14    23    24   ar
    15    24    25   ar
    16    25    26    1
    17    25    27   ar
    18    27    28   ar
    19     4     7    1
    20     7     9    1
    21     9    10   ar
    22    10    11   ar
    23    11    12   ar
    24    12    13   ar
    25    13    14   ar
    26    28    22   ar
    27    14     9   ar
    28     1     2    1
    29     7     8    1
@<TRIPOS>MOLECULE
*****
 28 29 0 0 0
SMALL
GASTEIGER

@<TRIPOS>ATOM
      1 N          62.3831   87.5276   10.0457 N.pl3   1  UNL1       -0.2609
      2 H          63.3660   87.5191   10.1011 H       1  UNL1        0.2588
      3 N          60.4452   89.2573   10.0990 N.pl3   1  UNL1        0.0107
      4 C          61.5999   88.5790   10.7747 C.cat   1  UNL1        0.4029
      5 N          58.8788   91.3600   11.5568 N.1     1  UNL1       -0.1505
      6 C          59.6620   90.3086   10.8279 C.1     1  UNL1        0.2954
      7 N          61.9715   88.9520   12.1792 N.pl3   1  UNL1       -0.2412
      8 H          61.4849   88.5571   12.9385 H       1  UNL1        0.2649
      9 C          63.0845   89.9267   12.4269 C.ar    1  UNL1        0.1199
     10 C          63.4518   90.9293   11.3734 C.ar    1  UNL1        0.0541
     11 C          64.5647   91.9039   11.6211 C.ar    1  UNL1        0.1018
     12 N          65.3104   91.8759   12.9224 N.ar    1  UNL1       -0.2421
     13 C          64.9431   90.8734   13.9759 C.ar    1  UNL1        0.1018
     14 C          63.8301   89.8988   13.7282 C.ar    1  UNL1        0.0541
     15 C          61.6687   86.4893    9.2324 C.3     1  UNL1        0.1740
     16 C          62.4427   85.5993    8.3057 C.3     1  UNL1        0.0428
     17 C          63.4540   84.6392    8.8585 C.3     1  UNL1        0.0037
     18 C          63.2938   84.0990   10.2486 C.3     1  UNL1        0.0039
     19 C          64.0828   82.8994   10.6826 C.3     1  UNL1        0.0473
     20 C          63.5701   82.0241   11.7876 C.3     1  UNL1        0.2054
     21 O          64.2207   82.0631   13.1386 O.3     1  UNL1       -0.4755
     22 C          63.9678   83.2197   14.0597 C.ar    1  UNL1        0.1386
     23 C          62.7157   83.2616   14.8846 C.ar    1  UNL1        0.0378
     24 C          62.4629   84.4182   15.8057 C.ar    1  UNL1        0.0145
     25 C          63.4621   85.5327   15.9019 C.ar    1  UNL1        0.0579
     26 CL         63.2092   86.6893   16.8231 Cl      1  UNL1       -0.0822
     27 C          64.7142   85.4908   15.0770 C.ar    1  UNL1        0.0145
     28 C          64.9670   84.3343   14.1559 C.ar    1  UNL1        0.0378
@<TRIPOS>BOND
     1     5     6    3
     2     6     3    1
     3     3     4    2
     4     4     1    1
     5     1    15    1
     6    15    16    1
     7    16    17    1
     8    17    18    1
     9    18    19    1
    10    19    20    1
    11    20    21    1
    12    21    22    1
    13    22    23   ar
    14    23    24   ar
    15    24    25   ar
    16    25    26    1
    17    25    27   ar
    18    27    28   ar
    19     4     7    1
    20     7     9    1
    21     9    10   ar
    22    10    11   ar
    23    11    12   ar
    24    12    13   ar
    25    13    14   ar
    26    28    22   ar
    27    14     9   ar
    28     1     2    1
    29     7     8    1
@<TRIPOS>MOLECULE
*****
 28 29 0 0 0
SMALL
GASTEIGER

@<TRIPOS>ATOM
      1 N          64.4269   91.4338   12.2929 N.pl3   1  UNL1       -0.2609
      2 H          64.3211   91.3577   11.3170 H       1  UNL1        0.2588
      3 N          66.5445   91.5407   13.7944 N.pl3   1  UNL1        0.0107
      4 C          65.5764   92.2099   12.8644 C.cat   1  UNL1        0.4029
      5 N          68.8433   93.0929   14.9374 N.1     1  UNL1       -0.1505
      6 C          67.6939   92.3168   14.3659 C.1     1  UNL1        0.2954
      7 N          65.7576   93.6550   12.5058 N.pl3   1  UNL1       -0.2412
      8 H          65.4258   94.3576   13.1104 H       1  UNL1        0.2649
      9 C          66.4446   94.0298   11.2260 C.ar    1  UNL1        0.1199
     10 C          67.1537   92.9818   10.4207 C.ar    1  UNL1        0.0541
     11 C          67.8406   93.3566    9.1410 C.ar    1  UNL1        0.1018
     12 N          67.8183   94.7794    8.6667 N.ar    1  UNL1       -0.2421
     13 C          67.1092   95.8275    9.4720 C.ar    1  UNL1        0.1018
     14 C          66.4223   95.4527   10.7517 C.ar    1  UNL1        0.0541
     15 C          63.4388   90.7737   13.2082 C.3     1  UNL1        0.1740
     16 C          63.6289   89.3409   13.6091 C.3     1  UNL1        0.0428
     17 C          64.2418   89.0087   14.9374 C.3     1  UNL1        0.0037
     18 C          63.3825   88.9459   16.1652 C.3     1  UNL1        0.0039
     19 C          63.0668   87.6206   16.7927 C.3     1  UNL1        0.0473
     20 C          63.5728   86.3548   16.1667 C.3     1  UNL1        0.2054
     21 O          62.6450   85.1930   15.9688 O.3     1  UNL1       -0.4755
     22 C          62.7784   84.3253   14.7524 C.ar    1  UNL1        0.1386
     23 C          62.2725   82.9135   14.7791 C.ar    1  UNL1        0.0378
     24 C          62.4059   82.0460   13.5628 C.ar    1  UNL1        0.0145
     25 C          63.0453   82.5902   12.3198 C.ar    1  UNL1        0.0579
     26 CL         63.1787   81.7226   11.1034 Cl      1  UNL1       -0.0822
     27 C          63.5512   84.0020   12.2931 C.ar    1  UNL1        0.0145
     28 C          63.4177   84.8696   13.5094 C.ar    1  UNL1        0.0378
@<TRIPOS>BOND
     1     5     6    3
     2     6     3    1
     3     3     4    2
     4     4     1    1
     5     1    15    1
     6    15    16    1
     7    16    17    1
     8    17    18    1
     9    18    19    1
    10    19    20    1
    11    20    21    1
    12    21    22    1
    13    22    23   ar
    14    23    24   ar
    15    24    25   ar
    16    25    26    1
    17    25    27   ar
    18    27    28   ar
    19     4     7    1
    20     7     9    1
    21     9    10   ar
    22    10    11   ar
    23    11    12   ar
    24    12    13   ar
    25    13    14   ar
    26    28    22   ar
    27    14     9   ar
    28     1     2    1
    29     7     8    1
