@<TRIPOS>MOLECULE
*****
 46 49 0 0 0
SMALL
GASTEIGER

@<TRIPOS>ATOM
      1 C          62.1960   88.7946   10.3440 C.3     1  UNL1        0.0503
      2 C          62.5737   88.2216   11.1953 C.ar    1  UNL1        0.0465
      3 C          62.6404   86.7474   10.9263 C.ar    1  UNL1        0.0682
      4 C          63.1367   85.8127   11.9893 C.ar    1  UNL1        0.2653
      5 O          63.2034   84.3385   11.7202 O.2     1  UNL1       -0.2668
      6 N          63.5664   86.3522   13.3213 N.ar    1  UNL1       -0.2470
      7 C          63.4998   87.8263   13.5903 C.ar    1  UNL1        0.3338
      8 O          63.9295   88.3658   14.9224 O.2     1  UNL1       -0.2462
      9 N          63.0034   88.7610   12.5273 N.ar    1  UNL1       -0.2806
     10 C          62.2107   86.2079    9.5942 C.ar    1  UNL1        0.0087
     11 C          63.1466   85.3506    8.7949 C.ar    1  UNL1        0.0004
     12 C          62.7169   84.8111    7.4629 C.ar    1  UNL1        0.0031
     13 C          61.3512   85.1289    6.9301 C.ar    1  UNL1        0.0369
     14 C          60.4152   85.9863    7.7295 C.ar    1  UNL1        0.1386
     15 C          60.8449   86.5258    9.0615 C.ar    1  UNL1        0.0371
     16 O          59.0495   86.3042    7.1968 O.3     1  UNL1       -0.4755
     17 C          58.4858   87.6853    7.3542 C.3     1  UNL1        0.2054
     18 C          59.3038   88.8788    6.9587 C.3     1  UNL1        0.0477
     19 C          58.6362   90.0796    6.3569 C.3     1  UNL1        0.0097
     20 C          59.3385   90.8759    5.2973 C.3     1  UNL1        0.0418
     21 C          58.6128   91.9765    4.5817 C.2     1  UNL1        0.0503
     22 O          59.3355   92.8194    3.5731 O.co2   1  UNL1       -0.5492
     23 O          57.1644   92.2342    4.8746 O.co2   1  UNL1       -0.5492
     24 C          64.0628   85.4175   14.3843 C.3     1  UNL1        0.1334
     25 C          63.1046   84.4980   15.0815 C.3     1  UNL1        0.0968
     26 N          62.3468   84.9763   16.2845 N.3     1  UNL1       -0.3172
     27 H          61.7461   84.2269   16.6281 H       1  UNL1        0.1192
     28 H          61.7742   85.7805   16.0280 H       1  UNL1        0.1192
     29 C          62.9040   83.1001   14.5759 C.ar    1  UNL1       -0.0063
     30 C          64.0740   82.3119   14.0660 C.ar    1  UNL1       -0.0029
     31 C          63.8735   80.9140   13.5603 C.ar    1  UNL1       -0.0003
     32 C          62.5029   80.3043   13.5645 C.ar    1  UNL1       -0.0000
     33 C          61.3330   81.0925   14.0744 C.ar    1  UNL1       -0.0003
     34 C          61.5335   82.4904   14.5800 C.ar    1  UNL1       -0.0029
     35 C          62.9368   90.2352   12.7964 C.3     1  UNL1        0.1391
     36 C          64.0657   91.1269   12.3715 C.ar    1  UNL1        0.0319
     37 C          64.2007   91.5325   10.9336 C.ar    1  UNL1        0.1379
     38 F          63.5465   91.2474   10.1052 F       1  UNL1       -0.2044
     39 C          65.3295   92.4242   10.5087 C.ar    1  UNL1        0.0294
     40 C          66.3234   92.9103   11.5217 C.ar    1  UNL1        0.0022
     41 C          66.1884   92.5047   12.9595 C.ar    1  UNL1        0.0037
     42 C          65.0595   91.6130   13.3844 C.ar    1  UNL1        0.0714
     43 C          64.9245   91.2075   14.8222 C.3     1  UNL1        0.4184
     44 F          64.7895   90.8019   16.2600 F       1  UNL1       -0.1659
     45 F          63.4932   91.6561   14.8144 F       1  UNL1       -0.1659
     46 F          66.3558   90.7588   14.8300 F       1  UNL1       -0.1659
@<TRIPOS>UNITY_ATOM_ATTR
22 1
charge -1
@<TRIPOS>BOND
     1     1     2    1
     2     2     3   ar
     3     3    10    1
     4    10    11   ar
     5    11    12   ar
     6    12    13   ar
     7    13    14   ar
     8    14    16    1
     9    16    17    1
    10    17    18    1
    11    18    19    1
    12    19    20    1
    13    20    21    1
    14    21    22   ar
    15    21    23   ar
    16    14    15   ar
    17     3     4   ar
    18     4     5    2
    19     4     6   ar
    20     6    24    1
    21    24    25    1
    22    25    26    1
    23    25    29    1
    24    29    30   ar
    25    30    31   ar
    26    31    32   ar
    27    32    33   ar
    28    33    34   ar
    29     6     7   ar
    30     7     8    2
    31     7     9   ar
    32     9    35    1
    33    35    36    1
    34    36    37   ar
    35    37    38    1
    36    37    39   ar
    37    39    40   ar
    38    40    41   ar
    39    41    42   ar
    40    42    43    1
    41    43    44    1
    42    43    45    1
    43    43    46    1
    44     9     2   ar
    45    42    36   ar
    46    15    10   ar
    47    34    29   ar
    48    26    27    1
    49    26    28    1
@<TRIPOS>MOLECULE
*****
 46 49 0 0 0
SMALL
GASTEIGER

@<TRIPOS>ATOM
      1 C          63.5383   90.3342   12.0916 C.3     1  UNL1        0.0503
      2 C          63.4309   89.2778   12.3524 C.ar    1  UNL1        0.0465
      3 C          63.7824   88.9883   13.7816 C.ar    1  UNL1        0.0682
      4 C          63.6904   87.5865   14.3074 C.ar    1  UNL1        0.2653
      5 O          64.0419   87.2971   15.7367 O.2     1  UNL1       -0.2668
      6 N          63.2469   86.4742   13.4041 N.ar    1  UNL1       -0.2470
      7 C          62.8954   86.7637   11.9750 C.ar    1  UNL1        0.3338
      8 O          62.4519   85.6513   11.0716 O.2     1  UNL1       -0.2462
      9 N          62.9874   88.1654   11.4491 N.ar    1  UNL1       -0.2806
     10 C          64.2259   90.1006   14.6850 C.ar    1  UNL1        0.0087
     11 C          63.4456   90.4145   15.9269 C.ar    1  UNL1        0.0004
     12 C          63.8891   91.5269   16.8303 C.ar    1  UNL1        0.0031
     13 C          65.1130   92.3253   16.4917 C.ar    1  UNL1        0.0369
     14 C          65.8934   92.0113   15.2496 C.ar    1  UNL1        0.1386
     15 C          65.4498   90.8990   14.3463 C.ar    1  UNL1        0.0371
     16 O          67.1172   92.8097   14.9110 O.3     1  UNL1       -0.4755
     17 C          67.4415   93.1140   13.4784 C.3     1  UNL1        0.2054
     18 C          66.4012   93.7255   12.5875 C.3     1  UNL1        0.0477
     19 C          66.1143   93.1213   11.2449 C.3     1  UNL1        0.0097
     20 C          67.1797   92.3455   10.5285 C.3     1  UNL1        0.0418
     21 C          68.0347   93.0213    9.4979 C.2     1  UNL1        0.0503
     22 O          68.3307   94.4873    9.6131 O.co2   1  UNL1       -0.5492
     23 O          68.5937   92.2311    8.3519 O.co2   1  UNL1       -0.5492
     24 C          63.1549   85.0724   13.9300 C.3     1  UNL1        0.1334
     25 C          64.2042   84.0643   13.5658 C.3     1  UNL1        0.0968
     26 N          65.5720   84.1519   14.1753 N.3     1  UNL1       -0.3172
     27 H          66.1526   83.3930   13.8182 H       1  UNL1        0.1192
     28 H          65.4978   84.0748   15.1896 H       1  UNL1        0.1192
     29 C          63.8857   82.9687   12.5920 C.ar    1  UNL1       -0.0063
     30 C          63.1035   81.7701   13.0411 C.ar    1  UNL1       -0.0029
     31 C          62.7850   80.6745   12.0674 C.ar    1  UNL1       -0.0003
     32 C          63.2488   80.7775   10.6445 C.ar    1  UNL1       -0.0000
     33 C          64.0309   81.9760   10.1955 C.ar    1  UNL1       -0.0003
     34 C          64.3494   83.0716   11.1692 C.ar    1  UNL1       -0.0029
     35 C          62.6359   88.4549   10.0198 C.3     1  UNL1        0.1391
     36 C          61.4454   87.7931    9.3915 C.ar    1  UNL1        0.0319
     37 C          61.6365   86.6294    8.4644 C.ar    1  UNL1        0.1379
     38 F          62.5848   86.1727    8.1685 F       1  UNL1       -0.2044
     39 C          60.4460   85.9677    7.8361 C.ar    1  UNL1        0.0294
     40 C          59.0644   86.4696    8.1349 C.ar    1  UNL1        0.0022
     41 C          58.8733   87.6332    9.0619 C.ar    1  UNL1        0.0037
     42 C          60.0638   88.2950    9.6902 C.ar    1  UNL1        0.0714
     43 C          59.8726   89.4587   10.6173 C.3     1  UNL1        0.4184
     44 F          59.6815   90.6223   11.5443 F       1  UNL1       -0.1659
     45 F          60.0223   90.4037    9.4621 F       1  UNL1       -0.1659
     46 F          59.7230   88.5137   11.7725 F       1  UNL1       -0.1659
@<TRIPOS>UNITY_ATOM_ATTR
22 1
charge -1
@<TRIPOS>BOND
     1     1     2    1
     2     2     3   ar
     3     3    10    1
     4    10    11   ar
     5    11    12   ar
     6    12    13   ar
     7    13    14   ar
     8    14    16    1
     9    16    17    1
    10    17    18    1
    11    18    19    1
    12    19    20    1
    13    20    21    1
    14    21    22   ar
    15    21    23   ar
    16    14    15   ar
    17     3     4   ar
    18     4     5    2
    19     4     6   ar
    20     6    24    1
    21    24    25    1
    22    25    26    1
    23    25    29    1
    24    29    30   ar
    25    30    31   ar
    26    31    32   ar
    27    32    33   ar
    28    33    34   ar
    29     6     7   ar
    30     7     8    2
    31     7     9   ar
    32     9    35    1
    33    35    36    1
    34    36    37   ar
    35    37    38    1
    36    37    39   ar
    37    39    40   ar
    38    40    41   ar
    39    41    42   ar
    40    42    43    1
    41    43    44    1
    42    43    45    1
    43    43    46    1
    44     9     2   ar
    45    42    36   ar
    46    15    10   ar
    47    34    29   ar
    48    26    27    1
    49    26    28    1
@<TRIPOS>MOLECULE
*****
 46 49 0 0 0
SMALL
GASTEIGER

@<TRIPOS>ATOM
      1 C          62.7197   88.0925   12.3421 C.3     1  UNL1        0.0503
      2 C          63.2458   89.0497   12.3925 C.ar    1  UNL1        0.0465
      3 C          63.8879   89.2961   13.7256 C.ar    1  UNL1        0.0682
      4 C          64.6519   90.5641   13.9672 C.ar    1  UNL1        0.2653
      5 O          65.2939   90.8104   15.3004 O.2     1  UNL1       -0.2668
      6 N          64.7738   91.5858   12.8758 N.ar    1  UNL1       -0.2470
      7 C          64.1318   91.3395   11.5428 C.ar    1  UNL1        0.3338
      8 O          64.2538   92.3612   10.4513 O.2     1  UNL1       -0.2462
      9 N          63.3678   90.0714   11.3011 N.ar    1  UNL1       -0.2806
     10 C          63.7659   88.2743   14.8171 C.ar    1  UNL1        0.0087
     11 C          63.1195   88.6420   16.1197 C.ar    1  UNL1        0.0004
     12 C          62.9976   87.6203   17.2112 C.ar    1  UNL1        0.0031
     13 C          63.5220   86.2309   17.0000 C.ar    1  UNL1        0.0369
     14 C          64.1684   85.8633   15.6972 C.ar    1  UNL1        0.1386
     15 C          64.2903   86.8850   14.6058 C.ar    1  UNL1        0.0371
     16 O          64.6928   84.4739   15.4860 O.3     1  UNL1       -0.4755
     17 C          63.7706   83.3872   15.0181 C.3     1  UNL1        0.2054
     18 C          62.4918   83.7389   14.3175 C.3     1  UNL1        0.0477
     19 C          62.5221   84.2143   12.8952 C.3     1  UNL1        0.0097
     20 C          63.7253   83.9466   12.0403 C.3     1  UNL1        0.0418
     21 C          63.8430   82.6496   11.2961 C.2     1  UNL1        0.0503
     22 O          62.9492   81.4980   11.6500 O.co2   1  UNL1       -0.5492
     23 O          64.8544   82.5041   10.1981 O.co2   1  UNL1       -0.5492
     24 C          65.5379   92.8538   13.1175 C.3     1  UNL1        0.1334
     25 C          66.9851   92.9422   12.7335 C.3     1  UNL1        0.0968
     26 N          68.0492   92.8004   13.7813 N.3     1  UNL1       -0.3172
     27 H          68.9679   92.8861   13.3466 H       1  UNL1        0.1192
     28 H          67.9678   91.8865   14.2269 H       1  UNL1        0.1192
     29 C          67.3685   93.1724   11.3017 C.ar    1  UNL1       -0.0063
     30 C          66.9887   94.4536   10.6202 C.ar    1  UNL1       -0.0029
     31 C          67.3720   94.6838    9.1884 C.ar    1  UNL1       -0.0003
     32 C          68.1352   93.6328    8.4381 C.ar    1  UNL1       -0.0000
     33 C          68.5150   92.3516    9.1195 C.ar    1  UNL1       -0.0003
     34 C          68.1317   92.1214   10.5513 C.ar    1  UNL1       -0.0029
     35 C          62.7257   89.8251    9.9680 C.3     1  UNL1        0.1391
     36 C          61.8426   88.6289    9.7705 C.ar    1  UNL1        0.0319
     37 C          62.4059   87.3699    9.1807 C.ar    1  UNL1        0.1379
     38 F          63.4360   87.1986    8.8565 F       1  UNL1       -0.2044
     39 C          61.5227   86.1737    8.9832 C.ar    1  UNL1        0.0294
     40 C          60.0762   86.2364    9.3755 C.ar    1  UNL1        0.0022
     41 C          59.5130   87.4953    9.9652 C.ar    1  UNL1        0.0037
     42 C          60.3961   88.6916   10.1627 C.ar    1  UNL1        0.0714
     43 C          59.8328   89.9505   10.7525 C.3     1  UNL1        0.4184
     44 F          59.2696   91.2094   11.3423 F       1  UNL1       -0.1659
     45 F          59.7507   90.5556    9.3825 F       1  UNL1       -0.1659
     46 F          59.9150   89.3454   12.1225 F       1  UNL1       -0.1659
@<TRIPOS>UNITY_ATOM_ATTR
22 1
charge -1
@<TRIPOS>BOND
     1     1     2    1
     2     2     3   ar
     3     3    10    1
     4    10    11   ar
     5    11    12   ar
     6    12    13   ar
     7    13    14   ar
     8    14    16    1
     9    16    17    1
    10    17    18    1
    11    18    19    1
    12    19    20    1
    13    20    21    1
    14    21    22   ar
    15    21    23   ar
    16    14    15   ar
    17     3     4   ar
    18     4     5    2
    19     4     6   ar
    20     6    24    1
    21    24    25    1
    22    25    26    1
    23    25    29    1
    24    29    30   ar
    25    30    31   ar
    26    31    32   ar
    27    32    33   ar
    28    33    34   ar
    29     6     7   ar
    30     7     8    2
    31     7     9   ar
    32     9    35    1
    33    35    36    1
    34    36    37   ar
    35    37    38    1
    36    37    39   ar
    37    39    40   ar
    38    40    41   ar
    39    41    42   ar
    40    42    43    1
    41    43    44    1
    42    43    45    1
    43    43    46    1
    44     9     2   ar
    45    42    36   ar
    46    15    10   ar
    47    34    29   ar
    48    26    27    1
    49    26    28    1
@<TRIPOS>MOLECULE
*****
 46 49 0 0 0
SMALL
GASTEIGER

@<TRIPOS>ATOM
      1 C          62.2751   88.6522   10.5871 C.3     1  UNL1        0.0503
      2 C          62.6456   88.0300   11.4065 C.ar    1  UNL1        0.0465
      3 C          62.7030   86.5727   11.0560 C.ar    1  UNL1        0.0682
      4 C          63.1887   85.5767   12.0670 C.ar    1  UNL1        0.2653
      5 O          63.2462   84.1193   11.7165 O.2     1  UNL1       -0.2668
      6 N          63.6170   86.0381   13.4285 N.ar    1  UNL1       -0.2470
      7 C          63.5596   87.4954   13.7790 C.ar    1  UNL1        0.3338
      8 O          63.9879   87.9568   15.1405 O.2     1  UNL1       -0.2462
      9 N          63.0739   88.4913   12.7680 N.ar    1  UNL1       -0.2806
     10 C          62.2747   86.1113    9.6945 C.ar    1  UNL1        0.0087
     11 C          63.2099   85.2978    8.8497 C.ar    1  UNL1        0.0004
     12 C          62.7816   84.8364    7.4881 C.ar    1  UNL1        0.0031
     13 C          61.4181   85.1884    6.9715 C.ar    1  UNL1        0.0369
     14 C          60.4829   86.0020    7.8163 C.ar    1  UNL1        0.1386
     15 C          60.9112   86.4633    9.1778 C.ar    1  UNL1        0.0371
     16 O          59.1194   86.3541    7.2997 O.3     1  UNL1       -0.4755
     17 C          58.5728   87.7356    7.5062 C.3     1  UNL1        0.2054
     18 C          59.3475   88.9279    7.0282 C.3     1  UNL1        0.0477
     19 C          58.6373   90.0597    6.3467 C.3     1  UNL1        0.0097
     20 C          59.3407   90.8586    5.2898 C.3     1  UNL1        0.0418
     21 C          58.6217   91.9733    4.5895 C.2     1  UNL1        0.0503
     22 O          57.1739   92.2334    4.8834 O.co2   1  UNL1       -0.5492
     23 O          59.3505   92.8281    3.5954 O.co2   1  UNL1       -0.5492
     24 C          64.1028   85.0421   14.4395 C.3     1  UNL1        0.1334
     25 C          63.1261   84.1365   15.1294 C.3     1  UNL1        0.0968
     26 N          62.4399   84.5899   16.3838 N.3     1  UNL1       -0.3172
     27 H          61.8153   83.8545   16.7145 H       1  UNL1        0.1192
     28 H          61.8996   85.4331   16.1901 H       1  UNL1        0.1192
     29 C          62.8356   82.7775   14.5649 C.ar    1  UNL1       -0.0063
     30 C          63.9522   81.9378   14.0187 C.ar    1  UNL1       -0.0029
     31 C          63.6617   80.5788   13.4542 C.ar    1  UNL1       -0.0003
     32 C          62.2546   80.0594   13.4358 C.ar    1  UNL1       -0.0000
     33 C          61.1380   80.8991   13.9820 C.ar    1  UNL1       -0.0003
     34 C          61.4285   82.2581   14.5465 C.ar    1  UNL1       -0.0029
     35 C          63.0165   89.9487   13.1185 C.3     1  UNL1        0.1391
     36 C          64.2757   90.7633   13.1476 C.ar    1  UNL1        0.0319
     37 C          65.1533   90.7443   14.3640 C.ar    1  UNL1        0.1379
     38 F          64.9868   90.1820   15.2869 F       1  UNL1       -0.2044
     39 C          66.4125   91.5588   14.3931 C.ar    1  UNL1        0.0294
     40 C          66.7942   92.3923   13.2058 C.ar    1  UNL1        0.0022
     41 C          65.9167   92.4113   11.9895 C.ar    1  UNL1        0.0037
     42 C          64.6574   91.5968   11.9604 C.ar    1  UNL1        0.0714
     43 C          63.7798   91.6158   10.7439 C.3     1  UNL1        0.4184
     44 F          62.9024   91.6348    9.5276 F       1  UNL1       -0.1659
     45 F          62.5633   91.5923   11.6212 F       1  UNL1       -0.1659
     46 F          64.9963   91.6392    9.8667 F       1  UNL1       -0.1659
@<TRIPOS>UNITY_ATOM_ATTR
22 1
charge -1
@<TRIPOS>BOND
     1     1     2    1
     2     2     3   ar
     3     3    10    1
     4    10    11   ar
     5    11    12   ar
     6    12    13   ar
     7    13    14   ar
     8    14    16    1
     9    16    17    1
    10    17    18    1
    11    18    19    1
    12    19    20    1
    13    20    21    1
    14    21    22   ar
    15    21    23   ar
    16    14    15   ar
    17     3     4   ar
    18     4     5    2
    19     4     6   ar
    20     6    24    1
    21    24    25    1
    22    25    26    1
    23    25    29    1
    24    29    30   ar
    25    30    31   ar
    26    31    32   ar
    27    32    33   ar
    28    33    34   ar
    29     6     7   ar
    30     7     8    2
    31     7     9   ar
    32     9    35    1
    33    35    36    1
    34    36    37   ar
    35    37    38    1
    36    37    39   ar
    37    39    40   ar
    38    40    41   ar
    39    41    42   ar
    40    42    43    1
    41    43    44    1
    42    43    45    1
    43    43    46    1
    44     9     2   ar
    45    42    36   ar
    46    15    10   ar
    47    34    29   ar
    48    26    27    1
    49    26    28    1
@<TRIPOS>MOLECULE
*****
 46 49 0 0 0
SMALL
GASTEIGER

@<TRIPOS>ATOM
      1 C          63.0981   87.4081   12.5127 C.3     1  UNL1        0.0503
      2 C          63.4778   88.4315   12.5764 C.ar    1  UNL1        0.0465
      3 C          62.9586   89.3183   11.4838 C.ar    1  UNL1        0.0682
      4 C          63.3798   90.7566   11.4213 C.ar    1  UNL1        0.2653
      5 O          62.8605   91.6434   10.3286 O.2     1  UNL1       -0.2668
      6 N          64.3203   91.3081   12.4515 N.ar    1  UNL1       -0.2470
      7 C          64.8395   90.4213   13.5441 C.ar    1  UNL1        0.3338
      8 O          65.7801   90.9728   14.5744 O.2     1  UNL1       -0.2462
      9 N          64.4183   88.9830   13.6066 N.ar    1  UNL1       -0.2806
     10 C          62.0180   88.7668   10.4535 C.ar    1  UNL1        0.0087
     11 C          60.7238   89.4688   10.1673 C.ar    1  UNL1        0.0004
     12 C          59.7832   88.9174    9.1371 C.ar    1  UNL1        0.0031
     13 C          60.1371   87.6639    8.3930 C.ar    1  UNL1        0.0369
     14 C          61.4314   86.9618    8.6793 C.ar    1  UNL1        0.1386
     15 C          62.3719   87.5133    9.7095 C.ar    1  UNL1        0.0371
     16 O          61.7853   85.7084    7.9353 O.3     1  UNL1       -0.4755
     17 C          63.0090   84.9295    8.3174 C.3     1  UNL1        0.2054
     18 C          63.1523   84.3941    9.7113 C.3     1  UNL1        0.0477
     19 C          64.1568   83.3187   10.0020 C.3     1  UNL1        0.0097
     20 C          63.7044   81.9989   10.5530 C.3     1  UNL1        0.0418
     21 C          63.3861   81.8650   12.0126 C.2     1  UNL1        0.0503
     22 O          64.4639   81.4824   12.9833 O.co2   1  UNL1       -0.5492
     23 O          61.9901   82.1135   12.5018 O.co2   1  UNL1       -0.5492
     24 C          64.7415   92.7464   12.3890 C.3     1  UNL1        0.1334
     25 C          66.1983   93.0995   12.3349 C.3     1  UNL1        0.0968
     26 N          66.9656   93.3148   13.6058 N.3     1  UNL1       -0.3172
     27 H          67.9340   93.5454   13.3834 H       1  UNL1        0.1192
     28 H          66.9391   92.4637   14.1673 H       1  UNL1        0.1192
     29 C          66.8879   93.2374   11.0100 C.ar    1  UNL1       -0.0063
     30 C          67.7164   92.1074   10.4745 C.ar    1  UNL1       -0.0029
     31 C          68.4060   92.2452    9.1496 C.ar    1  UNL1       -0.0003
     32 C          68.2671   93.5132    8.3601 C.ar    1  UNL1       -0.0000
     33 C          67.4387   94.6431    8.8956 C.ar    1  UNL1       -0.0003
     34 C          66.7491   94.5053   10.2205 C.ar    1  UNL1       -0.0029
     35 C          64.9376   88.0962   14.6993 C.3     1  UNL1        0.1391
     36 C          63.9813   87.4384   15.6495 C.ar    1  UNL1        0.0319
     37 C          63.2412   88.2638   16.6601 C.ar    1  UNL1        0.1379
     38 F          63.3106   89.3455   16.8043 F       1  UNL1       -0.2044
     39 C          62.2849   87.6061   17.6102 C.ar    1  UNL1        0.0294
     40 C          62.0687   86.1229   17.5499 C.ar    1  UNL1        0.0022
     41 C          62.8087   85.2976   16.5394 C.ar    1  UNL1        0.0037
     42 C          63.7650   85.9554   15.5892 C.ar    1  UNL1        0.0714
     43 C          64.5051   85.1300   14.5787 C.3     1  UNL1        0.4184
     44 F          65.2452   84.3046   13.5682 F       1  UNL1       -0.1659
     45 F          63.2010   84.6275   14.0339 F       1  UNL1       -0.1659
     46 F          65.8092   85.6324   15.1234 F       1  UNL1       -0.1659
@<TRIPOS>UNITY_ATOM_ATTR
22 1
charge -1
@<TRIPOS>BOND
     1     1     2    1
     2     2     3   ar
     3     3    10    1
     4    10    11   ar
     5    11    12   ar
     6    12    13   ar
     7    13    14   ar
     8    14    16    1
     9    16    17    1
    10    17    18    1
    11    18    19    1
    12    19    20    1
    13    20    21    1
    14    21    22   ar
    15    21    23   ar
    16    14    15   ar
    17     3     4   ar
    18     4     5    2
    19     4     6   ar
    20     6    24    1
    21    24    25    1
    22    25    26    1
    23    25    29    1
    24    29    30   ar
    25    30    31   ar
    26    31    32   ar
    27    32    33   ar
    28    33    34   ar
    29     6     7   ar
    30     7     8    2
    31     7     9   ar
    32     9    35    1
    33    35    36    1
    34    36    37   ar
    35    37    38    1
    36    37    39   ar
    37    39    40   ar
    38    40    41   ar
    39    41    42   ar
    40    42    43    1
    41    43    44    1
    42    43    45    1
    43    43    46    1
    44     9     2   ar
    45    42    36   ar
    46    15    10   ar
    47    34    29   ar
    48    26    27    1
    49    26    28    1
@<TRIPOS>MOLECULE
*****
 46 49 0 0 0
SMALL
GASTEIGER

@<TRIPOS>ATOM
      1 C          63.7263   91.9878   10.5655 C.3     1  UNL1        0.0503
      2 C          64.0288   91.4960   11.4941 C.ar    1  UNL1        0.0465
      3 C          63.2813   90.2216   11.7528 C.ar    1  UNL1        0.0682
      4 C          63.5727   89.4182   12.9855 C.ar    1  UNL1        0.2653
      5 O          62.8251   88.1437   13.2442 O.2     1  UNL1       -0.2668
      6 N          64.6116   89.8891   13.9595 N.ar    1  UNL1       -0.2470
      7 C          65.3591   91.1636   13.7008 C.ar    1  UNL1        0.3338
      8 O          66.3981   91.6346   14.6749 O.2     1  UNL1       -0.2462
      9 N          65.0677   91.9670   12.4681 N.ar    1  UNL1       -0.2806
     10 C          62.2423   89.7505   10.7788 C.ar    1  UNL1        0.0087
     11 C          61.0241   90.5863   10.5189 C.ar    1  UNL1        0.0004
     12 C          59.9851   90.1153    9.5449 C.ar    1  UNL1        0.0031
     13 C          60.1643   88.8084    8.8308 C.ar    1  UNL1        0.0369
     14 C          61.3825   87.9726    9.0907 C.ar    1  UNL1        0.1386
     15 C          62.4215   88.4437   10.0647 C.ar    1  UNL1        0.0371
     16 O          61.5617   86.6657    8.3766 O.3     1  UNL1       -0.4755
     17 C          62.0308   85.4570    9.1310 C.3     1  UNL1        0.2054
     18 C          61.8074   85.3635   10.6113 C.3     1  UNL1        0.0477
     19 C          62.8534   84.7439   11.4899 C.3     1  UNL1        0.0097
     20 C          62.7061   83.3215   11.9427 C.3     1  UNL1        0.0418
     21 C          63.4693   82.2313   11.2506 C.2     1  UNL1        0.0503
     22 O          64.6831   82.5665   10.4355 O.co2   1  UNL1       -0.5492
     23 O          63.0187   80.8059   11.3737 O.co2   1  UNL1       -0.5492
     24 C          64.9030   89.0857   15.1922 C.3     1  UNL1        0.1334
     25 C          63.8538   88.1768   15.7605 C.3     1  UNL1        0.0968
     26 N          62.7019   88.7507   16.5313 N.3     1  UNL1       -0.3172
     27 H          62.0904   87.9956   16.8414 H       1  UNL1        0.1192
     28 H          62.1772   89.3893   15.9335 H       1  UNL1        0.1192
     29 C          63.9563   86.6941   15.5582 C.ar    1  UNL1       -0.0063
     30 C          62.9431   85.7802   16.1814 C.ar    1  UNL1       -0.0029
     31 C          63.0456   84.2975   15.9791 C.ar    1  UNL1       -0.0003
     32 C          64.1613   83.7286   15.1534 C.ar    1  UNL1       -0.0000
     33 C          65.1744   84.6425   14.5302 C.ar    1  UNL1       -0.0003
     34 C          65.0719   86.1252   14.7326 C.ar    1  UNL1       -0.0029
     35 C          65.8153   93.2415   12.2095 C.3     1  UNL1        0.1391
     36 C          66.7161   93.3535   11.0153 C.ar    1  UNL1        0.0319
     37 C          67.6369   92.2233   10.6618 C.ar    1  UNL1        0.1379
     38 F          67.7449   91.2724   11.1907 F       1  UNL1       -0.2044
     39 C          68.5377   92.3353    9.4676 C.ar    1  UNL1        0.0294
     40 C          68.5176   93.5774    8.6269 C.ar    1  UNL1        0.0022
     41 C          67.5968   94.7075    8.9803 C.ar    1  UNL1        0.0037
     42 C          66.6960   94.5955   10.1745 C.ar    1  UNL1        0.0714
     43 C          65.7752   95.7257   10.5280 C.3     1  UNL1        0.4184
     44 F          64.8544   96.8558   10.8814 F       1  UNL1       -0.1659
     45 F          64.6244   94.9771    9.9236 F       1  UNL1       -0.1659
     46 F          66.9259   96.4742   11.1324 F       1  UNL1       -0.1659
@<TRIPOS>UNITY_ATOM_ATTR
22 1
charge -1
@<TRIPOS>BOND
     1     1     2    1
     2     2     3   ar
     3     3    10    1
     4    10    11   ar
     5    11    12   ar
     6    12    13   ar
     7    13    14   ar
     8    14    16    1
     9    16    17    1
    10    17    18    1
    11    18    19    1
    12    19    20    1
    13    20    21    1
    14    21    22   ar
    15    21    23   ar
    16    14    15   ar
    17     3     4   ar
    18     4     5    2
    19     4     6   ar
    20     6    24    1
    21    24    25    1
    22    25    26    1
    23    25    29    1
    24    29    30   ar
    25    30    31   ar
    26    31    32   ar
    27    32    33   ar
    28    33    34   ar
    29     6     7   ar
    30     7     8    2
    31     7     9   ar
    32     9    35    1
    33    35    36    1
    34    36    37   ar
    35    37    38    1
    36    37    39   ar
    37    39    40   ar
    38    40    41   ar
    39    41    42   ar
    40    42    43    1
    41    43    44    1
    42    43    45    1
    43    43    46    1
    44     9     2   ar
    45    42    36   ar
    46    15    10   ar
    47    34    29   ar
    48    26    27    1
    49    26    28    1
@<TRIPOS>MOLECULE
*****
 46 49 0 0 0
SMALL
GASTEIGER

@<TRIPOS>ATOM
      1 C          62.4491   85.2450   10.8404 C.3     1  UNL1        0.0503
      2 C          62.6868   86.1149   11.4589 C.ar    1  UNL1        0.0465
      3 C          62.0343   87.3752   10.9732 C.ar    1  UNL1        0.0682
      4 C          62.2546   88.6647   11.7071 C.ar    1  UNL1        0.2653
      5 O          61.6020   89.9250   11.2213 O.2     1  UNL1       -0.2668
      6 N          63.1274   88.6940   12.9266 N.ar    1  UNL1       -0.2470
      7 C          63.7798   87.4337   13.4123 C.ar    1  UNL1        0.3338
      8 O          64.6527   87.4629   14.6319 O.2     1  UNL1       -0.2462
      9 N          63.5595   86.1442   12.6785 N.ar    1  UNL1       -0.2806
     10 C          61.1614   87.3460    9.7536 C.ar    1  UNL1        0.0087
     11 C          60.8457   86.0391    9.0885 C.ar    1  UNL1        0.0004
     12 C          59.9728   86.0099    7.8688 C.ar    1  UNL1        0.0031
     13 C          59.4158   87.2876    7.3145 C.ar    1  UNL1        0.0369
     14 C          59.7316   88.5944    7.9797 C.ar    1  UNL1        0.1386
     15 C          60.6044   88.6236    9.1992 C.ar    1  UNL1        0.0371
     16 O          59.1746   89.8721    7.4253 O.3     1  UNL1       -0.4755
     17 C          59.2457   90.1443    5.9519 C.3     1  UNL1        0.2054
     18 C          58.1720   90.9527    5.2858 C.3     1  UNL1        0.0477
     19 C          58.5357   92.1685    4.4861 C.3     1  UNL1        0.0097
     20 C          59.9281   92.3251    3.9506 C.3     1  UNL1        0.0418
     21 C          60.1634   93.1000    2.6881 C.2     1  UNL1        0.0503
     22 O          59.9933   94.5904    2.6801 O.co2   1  UNL1       -0.5492
     23 O          60.5688   92.3848    1.4335 O.co2   1  UNL1       -0.5492
     24 C          63.3477   89.9835   13.6605 C.3     1  UNL1        0.1334
     25 C          64.3307   90.9871   13.1349 C.3     1  UNL1        0.0968
     26 N          64.2544   91.4339   11.7049 N.3     1  UNL1       -0.3172
     27 H          64.9931   92.1127   11.5209 H       1  UNL1        0.1192
     28 H          63.3461   91.8642   11.5311 H       1  UNL1        0.1192
     29 C          65.3900   91.5441   14.0391 C.ar    1  UNL1       -0.0063
     30 C          65.0645   91.8628   15.4683 C.ar    1  UNL1       -0.0029
     31 C          66.1239   92.4197   16.3725 C.ar    1  UNL1       -0.0003
     32 C          67.5087   92.6579   15.8475 C.ar    1  UNL1       -0.0000
     33 C          67.8342   92.3392   14.4184 C.ar    1  UNL1       -0.0003
     34 C          66.7748   91.7822   13.5142 C.ar    1  UNL1       -0.0029
     35 C          64.2121   84.8838   13.1642 C.3     1  UNL1        0.1391
     36 C          63.4238   83.6095   13.2329 C.ar    1  UNL1        0.0319
     37 C          63.4765   82.6328   12.0956 C.ar    1  UNL1        0.1379
     38 F          64.0472   82.7327   11.1683 F       1  UNL1       -0.2044
     39 C          62.6882   81.3585   12.1642 C.ar    1  UNL1        0.0294
     40 C          61.8472   81.0609   13.3702 C.ar    1  UNL1        0.0022
     41 C          61.7945   82.0376   14.5073 C.ar    1  UNL1        0.0037
     42 C          62.5828   83.3119   14.4387 C.ar    1  UNL1        0.0714
     43 C          62.5300   84.2886   15.5760 C.3     1  UNL1        0.4184
     44 F          62.4774   85.2653   16.7132 F       1  UNL1       -0.1659
     45 F          61.1618   84.7222   15.1402 F       1  UNL1       -0.1659
     46 F          63.8983   83.8551   16.0117 F       1  UNL1       -0.1659
@<TRIPOS>UNITY_ATOM_ATTR
22 1
charge -1
@<TRIPOS>BOND
     1     1     2    1
     2     2     3   ar
     3     3    10    1
     4    10    11   ar
     5    11    12   ar
     6    12    13   ar
     7    13    14   ar
     8    14    16    1
     9    16    17    1
    10    17    18    1
    11    18    19    1
    12    19    20    1
    13    20    21    1
    14    21    22   ar
    15    21    23   ar
    16    14    15   ar
    17     3     4   ar
    18     4     5    2
    19     4     6   ar
    20     6    24    1
    21    24    25    1
    22    25    26    1
    23    25    29    1
    24    29    30   ar
    25    30    31   ar
    26    31    32   ar
    27    32    33   ar
    28    33    34   ar
    29     6     7   ar
    30     7     8    2
    31     7     9   ar
    32     9    35    1
    33    35    36    1
    34    36    37   ar
    35    37    38    1
    36    37    39   ar
    37    39    40   ar
    38    40    41   ar
    39    41    42   ar
    40    42    43    1
    41    43    44    1
    42    43    45    1
    43    43    46    1
    44     9     2   ar
    45    42    36   ar
    46    15    10   ar
    47    34    29   ar
    48    26    27    1
    49    26    28    1
@<TRIPOS>MOLECULE
*****
 46 49 0 0 0
SMALL
GASTEIGER

@<TRIPOS>ATOM
      1 C          62.3170   85.4013   10.7312 C.3     1  UNL1        0.0503
      2 C          62.5796   86.2470   11.3727 C.ar    1  UNL1        0.0465
      3 C          61.9414   87.5328   10.9377 C.ar    1  UNL1        0.0682
      4 C          62.1958   88.7946   11.7080 C.ar    1  UNL1        0.2653
      5 O          61.5576   90.0805   11.2730 O.2     1  UNL1       -0.2668
      6 N          63.0885   88.7704   12.9132 N.ar    1  UNL1       -0.2470
      7 C          63.7267   87.4846   13.3481 C.ar    1  UNL1        0.3338
      8 O          64.6194   87.4604   14.5534 O.2     1  UNL1       -0.2462
      9 N          63.4722   86.2229   12.5779 N.ar    1  UNL1       -0.2806
     10 C          61.0487   87.5570    9.7325 C.ar    1  UNL1        0.0087
     11 C          60.5353   86.2721    9.1535 C.ar    1  UNL1        0.0004
     12 C          59.6426   86.2962    7.9482 C.ar    1  UNL1        0.0031
     13 C          59.2633   87.6054    7.3220 C.ar    1  UNL1        0.0369
     14 C          59.7767   88.8905    7.9011 C.ar    1  UNL1        0.1386
     15 C          60.6694   88.8662    9.1063 C.ar    1  UNL1        0.0371
     16 O          59.3974   90.1997    7.2749 O.3     1  UNL1       -0.4755
     17 C          58.9844   90.2500    5.8337 C.3     1  UNL1        0.2054
     18 C          59.5951   91.2650    4.9135 C.3     1  UNL1        0.0477
     19 C          61.0307   91.1338    4.4990 C.3     1  UNL1        0.0097
     20 C          61.5847   92.0200    3.4231 C.3     1  UNL1        0.0418
     21 C          62.9883   91.8183    2.9340 C.2     1  UNL1        0.0503
     22 O          63.5565   92.7308    1.8878 O.co2   1  UNL1       -0.5492
     23 O          63.8238   90.7040    3.4911 O.co2   1  UNL1       -0.5492
     24 C          63.3429   90.0322   13.6835 C.3     1  UNL1        0.1334
     25 C          64.3315   91.0372   13.1711 C.3     1  UNL1        0.0968
     26 N          64.2594   91.5013   11.7465 N.3     1  UNL1       -0.3172
     27 H          65.0016   92.1787   11.5716 H       1  UNL1        0.1192
     28 H          63.3534   91.9380   11.5766 H       1  UNL1        0.1192
     29 C          65.3922   91.5783   14.0834 C.ar    1  UNL1       -0.0063
     30 C          65.0594   91.9068   15.5087 C.ar    1  UNL1       -0.0029
     31 C          66.1201   92.4478   16.4209 C.ar    1  UNL1       -0.0003
     32 C          67.5136   92.6604   15.9078 C.ar    1  UNL1       -0.0000
     33 C          67.8463   92.3319   14.4826 C.ar    1  UNL1       -0.0003
     34 C          66.7856   91.7908   13.5704 C.ar    1  UNL1       -0.0029
     35 C          64.1105   84.9369   13.0129 C.3     1  UNL1        0.1391
     36 C          63.2579   83.7385   13.3074 C.ar    1  UNL1        0.0319
     37 C          62.4062   83.7091   14.5419 C.ar    1  UNL1        0.1379
     38 F          62.3195   84.4919   15.3003 F       1  UNL1       -0.2044
     39 C          61.5536   82.5106   14.8364 C.ar    1  UNL1        0.0294
     40 C          61.5526   81.3416   13.8964 C.ar    1  UNL1        0.0022
     41 C          62.4042   81.3711   12.6620 C.ar    1  UNL1        0.0037
     42 C          63.2569   82.5695   12.3675 C.ar    1  UNL1        0.0714
     43 C          64.1085   82.5989   11.1330 C.3     1  UNL1        0.4184
     44 F          64.9602   82.6284    9.8986 F       1  UNL1       -0.1659
     45 F          62.9257   82.1881   10.3072 F       1  UNL1       -0.1659
     46 F          65.2913   83.0098   11.9589 F       1  UNL1       -0.1659
@<TRIPOS>UNITY_ATOM_ATTR
22 1
charge -1
@<TRIPOS>BOND
     1     1     2    1
     2     2     3   ar
     3     3    10    1
     4    10    11   ar
     5    11    12   ar
     6    12    13   ar
     7    13    14   ar
     8    14    16    1
     9    16    17    1
    10    17    18    1
    11    18    19    1
    12    19    20    1
    13    20    21    1
    14    21    22   ar
    15    21    23   ar
    16    14    15   ar
    17     3     4   ar
    18     4     5    2
    19     4     6   ar
    20     6    24    1
    21    24    25    1
    22    25    26    1
    23    25    29    1
    24    29    30   ar
    25    30    31   ar
    26    31    32   ar
    27    32    33   ar
    28    33    34   ar
    29     6     7   ar
    30     7     8    2
    31     7     9   ar
    32     9    35    1
    33    35    36    1
    34    36    37   ar
    35    37    38    1
    36    37    39   ar
    37    39    40   ar
    38    40    41   ar
    39    41    42   ar
    40    42    43    1
    41    43    44    1
    42    43    45    1
    43    43    46    1
    44     9     2   ar
    45    42    36   ar
    46    15    10   ar
    47    34    29   ar
    48    26    27    1
    49    26    28    1
@<TRIPOS>MOLECULE
*****
 46 49 0 0 0
SMALL
GASTEIGER

@<TRIPOS>ATOM
      1 C          63.1263   86.1235   11.3738 C.3     1  UNL1        0.0503
      2 C          63.1105   87.1102   11.8447 C.ar    1  UNL1        0.0465
      3 C          63.3679   87.0590   13.3216 C.ar    1  UNL1        0.0682
      4 C          63.3816   88.3257   14.1249 C.ar    1  UNL1        0.2653
      5 O          63.6390   88.2744   15.6018 O.2     1  UNL1       -0.2668
      6 N          63.1380   89.6436   13.4513 N.ar    1  UNL1       -0.2470
      7 C          62.8807   89.6948   11.9745 C.ar    1  UNL1        0.3338
      8 O          62.6370   91.0128   11.3009 O.2     1  UNL1       -0.2462
      9 N          62.8669   88.4281   11.1712 N.ar    1  UNL1       -0.2806
     10 C          63.6115   85.7410   13.9952 C.ar    1  UNL1        0.0087
     11 C          64.9862   85.3906   14.4825 C.ar    1  UNL1        0.0004
     12 C          65.2298   84.0726   15.1561 C.ar    1  UNL1        0.0031
     13 C          64.0987   83.1051   15.3424 C.ar    1  UNL1        0.0369
     14 C          62.7240   83.4557   14.8551 C.ar    1  UNL1        0.1386
     15 C          62.4805   84.7736   14.1815 C.ar    1  UNL1        0.0371
     16 O          61.5930   82.4882   15.0414 O.3     1  UNL1       -0.4755
     17 C          61.4116   81.3520   14.0789 C.3     1  UNL1        0.2054
     18 C          62.6045   80.5838   13.5922 C.3     1  UNL1        0.0477
     19 C          62.8608   80.4499   12.1203 C.3     1  UNL1        0.0097
     20 C          62.7936   81.6584   11.2343 C.3     1  UNL1        0.0418
     21 C          64.0232   82.4843   10.9979 C.2     1  UNL1        0.0503
     22 O          64.1424   83.3126    9.7529 O.co2   1  UNL1       -0.5492
     23 O          65.1336   82.4820   12.0063 O.co2   1  UNL1       -0.5492
     24 C          63.1517   90.9103   14.2547 C.3     1  UNL1        0.1334
     25 C          64.0812   91.0468   15.4240 C.3     1  UNL1        0.0968
     26 N          63.6185   90.6640   16.7986 N.3     1  UNL1       -0.3172
     27 H          64.3730   90.8200   17.4670 H       1  UNL1        0.1192
     28 H          63.3554   89.6786   16.8067 H       1  UNL1        0.1192
     29 C          65.4734   91.5661   15.2188 C.ar    1  UNL1       -0.0063
     30 C          66.2179   91.2384   13.9585 C.ar    1  UNL1       -0.0029
     31 C          67.6101   91.7577   13.7533 C.ar    1  UNL1       -0.0003
     32 C          68.2578   92.6046   14.8085 C.ar    1  UNL1       -0.0000
     33 C          67.5133   92.9322   16.0687 C.ar    1  UNL1       -0.0003
     34 C          66.1211   92.4130   16.2739 C.ar    1  UNL1       -0.0029
     35 C          62.6096   88.4794    9.6943 C.3     1  UNL1        0.1391
     36 C          61.4632   87.7118    9.1057 C.ar    1  UNL1        0.0319
     37 C          61.7225   86.4563    8.3268 C.ar    1  UNL1        0.1379
     38 F          62.6940   85.9996    8.1189 F       1  UNL1       -0.2044
     39 C          60.5761   85.6886    7.7382 C.ar    1  UNL1        0.0294
     40 C          59.1704   86.1764    7.9284 C.ar    1  UNL1        0.0022
     41 C          58.9111   87.4318    8.7073 C.ar    1  UNL1        0.0037
     42 C          60.0575   88.1995    9.2959 C.ar    1  UNL1        0.0714
     43 C          59.7982   89.4550   10.0748 C.3     1  UNL1        0.4184
     44 F          59.5390   90.7104   10.8536 F       1  UNL1       -0.1659
     45 F          59.6447   88.6456   11.3283 F       1  UNL1       -0.1659
     46 F          59.9518   90.2643    8.8213 F       1  UNL1       -0.1659
@<TRIPOS>UNITY_ATOM_ATTR
22 1
charge -1
@<TRIPOS>BOND
     1     1     2    1
     2     2     3   ar
     3     3    10    1
     4    10    11   ar
     5    11    12   ar
     6    12    13   ar
     7    13    14   ar
     8    14    16    1
     9    16    17    1
    10    17    18    1
    11    18    19    1
    12    19    20    1
    13    20    21    1
    14    21    22   ar
    15    21    23   ar
    16    14    15   ar
    17     3     4   ar
    18     4     5    2
    19     4     6   ar
    20     6    24    1
    21    24    25    1
    22    25    26    1
    23    25    29    1
    24    29    30   ar
    25    30    31   ar
    26    31    32   ar
    27    32    33   ar
    28    33    34   ar
    29     6     7   ar
    30     7     8    2
    31     7     9   ar
    32     9    35    1
    33    35    36    1
    34    36    37   ar
    35    37    38    1
    36    37    39   ar
    37    39    40   ar
    38    40    41   ar
    39    41    42   ar
    40    42    43    1
    41    43    44    1
    42    43    45    1
    43    43    46    1
    44     9     2   ar
    45    42    36   ar
    46    15    10   ar
    47    34    29   ar
    48    26    27    1
    49    26    28    1
