@<TRIPOS>MOLECULE
*****
 28 31 0 0 0
SMALL
GASTEIGER

@<TRIPOS>ATOM
      1 C          63.8616   90.8309   12.5383 C.ar    1  UNL1        0.0926
      2 C          64.9330   91.7999   12.1347 C.ar    1  UNL1        0.0467
      3 C          65.7346   92.5115   13.1839 C.ar    1  UNL1        0.1648
      4 C          65.4648   92.2541   14.6369 C.ar    1  UNL1        0.1395
      5 N          64.3934   91.2850   15.0405 N.ar    1  UNL1       -0.2060
      6 N          63.9047   90.8314   16.3841 N.ar    1  UNL1       -0.1408
      7 C          62.8010   89.8395   16.1653 C.ar    1  UNL1        0.2213
      8 N          62.6076   89.6800   14.6864 N.ar    1  UNL1       -0.2033
      9 C          63.5918   90.5734   13.9912 C.ar    1  UNL1        0.1702
     10 O          62.7569   90.7996   10.1869 O.2     1  UNL1       -0.2697
     11 C          63.0599   90.1192   11.4890 C.2     1  UNL1        0.2536
     12 N          62.5614   88.7273   11.7417 N.am    1  UNL1       -0.2657
     13 H          62.7603   88.2807   12.5963 H       1  UNL1        0.1566
     14 C          61.7597   88.0157   10.6924 C.ar    1  UNL1        0.1345
     15 C          62.3592   86.8615    9.9451 C.ar    1  UNL1        0.0368
     16 C          61.5576   86.1499    8.8957 C.ar    1  UNL1        0.0341
     17 C          60.1566   86.5926    8.5936 C.ar    1  UNL1        0.1593
     18 F          59.3551   85.8810    7.5443 F       1  UNL1       -0.2025
     19 C          59.5572   87.7468    9.3410 C.ar    1  UNL1        0.1298
     20 N          60.3587   88.4584   10.3903 N.ar    1  UNL1       -0.2267
     21 O          66.8061   93.4806   12.7803 O.3     1  UNL1       -0.4503
     22 C          67.0453   93.7724   11.3285 C.ar    1  UNL1        0.1667
     23 C          66.4525   95.0000   10.7026 C.ar    1  UNL1        0.1364
     24 N          66.6917   95.2918    9.2508 N.ar    1  UNL1       -0.2368
     25 C          67.5236   94.3560    8.4249 C.ar    1  UNL1        0.1286
     26 C          68.1164   93.1284    9.0508 C.ar    1  UNL1        0.1623
     27 F          68.9484   92.1925    8.2249 F       1  UNL1       -0.2024
     28 C          67.8772   92.8366   10.5026 C.ar    1  UNL1        0.0703
@<TRIPOS>BOND
     1    10    11    2
     2    11    12   am
     3    12    14    1
     4    14    15   ar
     5    15    16   ar
     6    16    17   ar
     7    17    18    1
     8    17    19   ar
     9    19    20   ar
    10    11     1    1
    11     1     2   ar
    12     2     3   ar
    13     3    21    1
    14    21    22    1
    15    22    23   ar
    16    23    24   ar
    17    24    25   ar
    18    25    26   ar
    19    26    27    1
    20    26    28   ar
    21     3     4   ar
    22     4     5   ar
    23     5     6   ar
    24     6     7   ar
    25     7     8   ar
    26     8     9   ar
    27    20    14   ar
    28     9     1   ar
    29    28    22   ar
    30     9     5   ar
    31    12    13    1
@<TRIPOS>MOLECULE
*****
 28 31 0 0 0
SMALL
GASTEIGER

@<TRIPOS>ATOM
      1 C          63.5297   88.2536   13.1924 C.ar    1  UNL1        0.0926
      2 C          64.0910   89.1730   14.2362 C.ar    1  UNL1        0.0467
      3 C          64.0474   90.6580   14.0296 C.ar    1  UNL1        0.1648
      4 C          63.4423   91.2237   12.7790 C.ar    1  UNL1        0.1395
      5 N          62.8810   90.3044   11.7351 N.ar    1  UNL1       -0.2060
      6 N          62.2271   90.5691   10.4114 N.ar    1  UNL1       -0.1408
      7 C          61.8667   89.2477    9.8000 C.ar    1  UNL1        0.2213
      8 N          62.2978   88.1662   10.7458 N.ar    1  UNL1       -0.2033
      9 C          62.9247   88.8193   11.9418 C.ar    1  UNL1        0.1702
     10 O          64.5475   86.1753   14.3735 O.2     1  UNL1       -0.2697
     11 C          63.5734   86.7686   13.3991 C.2     1  UNL1        0.2536
     12 N          62.6432   85.8768   12.6314 N.am    1  UNL1       -0.2657
     13 H          62.0039   86.2661   11.9919 H       1  UNL1        0.1566
     14 C          62.6870   84.3917   12.8382 C.ar    1  UNL1        0.1345
     15 C          63.0387   83.4855   11.6958 C.ar    1  UNL1        0.0368
     16 C          63.0825   82.0005   11.9025 C.ar    1  UNL1        0.0341
     17 C          62.7746   81.4216   13.2516 C.ar    1  UNL1        0.1593
     18 F          62.8183   79.9367   13.4583 F       1  UNL1       -0.2025
     19 C          62.4228   82.3279   14.3940 C.ar    1  UNL1        0.1298
     20 N          62.3790   83.8128   14.1873 N.ar    1  UNL1       -0.2267
     21 O          64.6087   91.5774   15.0735 O.3     1  UNL1       -0.4503
     22 C          66.0597   91.9559   15.0376 C.ar    1  UNL1        0.1667
     23 C          66.6651   92.7158   16.1804 C.ar    1  UNL1        0.1364
     24 N          68.1161   93.0944   16.1445 N.ar    1  UNL1       -0.2368
     25 C          68.9617   92.7131   14.9657 C.ar    1  UNL1        0.1286
     26 C          68.3563   91.9532   13.8228 C.ar    1  UNL1        0.1623
     27 F          69.2019   91.5719   12.6440 F       1  UNL1       -0.2024
     28 C          66.9053   91.5747   13.8588 C.ar    1  UNL1        0.0703
@<TRIPOS>BOND
     1    10    11    2
     2    11    12   am
     3    12    14    1
     4    14    15   ar
     5    15    16   ar
     6    16    17   ar
     7    17    18    1
     8    17    19   ar
     9    19    20   ar
    10    11     1    1
    11     1     2   ar
    12     2     3   ar
    13     3    21    1
    14    21    22    1
    15    22    23   ar
    16    23    24   ar
    17    24    25   ar
    18    25    26   ar
    19    26    27    1
    20    26    28   ar
    21     3     4   ar
    22     4     5   ar
    23     5     6   ar
    24     6     7   ar
    25     7     8   ar
    26     8     9   ar
    27    20    14   ar
    28     9     1   ar
    29    28    22   ar
    30     9     5   ar
    31    12    13    1
@<TRIPOS>MOLECULE
*****
 28 31 0 0 0
SMALL
GASTEIGER

@<TRIPOS>ATOM
      1 C          63.1853   88.2889   12.5389 C.ar    1  UNL1        0.0926
      2 C          63.7918   89.4364   13.2909 C.ar    1  UNL1        0.0467
      3 C          63.5964   90.8407   12.8016 C.ar    1  UNL1        0.1648
      4 C          62.7944   91.0977   11.5602 C.ar    1  UNL1        0.1395
      5 N          62.1879   89.9503   10.8083 N.ar    1  UNL1       -0.2060
      6 N          61.3542   89.8953    9.5626 N.ar    1  UNL1       -0.1408
      7 C          61.0343   88.4570    9.2820 C.ar    1  UNL1        0.2213
      8 N          61.6703   87.6229   10.3543 N.ar    1  UNL1       -0.2033
      9 C          62.3833   88.5459   11.2976 C.ar    1  UNL1        0.1702
     10 O          64.1815   86.6277   14.2705 O.2     1  UNL1       -0.2697
     11 C          63.3807   86.8845   13.0283 C.2     1  UNL1        0.2536
     12 N          62.7754   85.7369   12.2756 N.am    1  UNL1       -0.2657
     13 H          62.2498   85.9055   11.4603 H       1  UNL1        0.1566
     14 C          62.9709   84.3325   12.7650 C.ar    1  UNL1        0.1345
     15 C          63.8084   83.3723   11.9735 C.ar    1  UNL1        0.0368
     16 C          64.0040   81.9679   12.4629 C.ar    1  UNL1        0.0341
     17 C          63.3619   81.5238   13.7437 C.ar    1  UNL1        0.1593
     18 F          63.5574   80.1195   14.2331 F       1  UNL1       -0.2025
     19 C          62.5243   82.4841   14.5352 C.ar    1  UNL1        0.1298
     20 N          62.3288   83.8884   14.0458 N.ar    1  UNL1       -0.2267
     21 O          64.2030   91.9882   13.5536 O.3     1  UNL1       -0.4503
     22 C          65.6823   92.0259   13.7989 C.ar    1  UNL1        0.1667
     23 C          66.6329   92.1023   12.6411 C.ar    1  UNL1        0.1364
     24 N          68.1122   92.1400   12.8864 N.ar    1  UNL1       -0.2368
     25 C          68.6410   92.1013   14.2896 C.ar    1  UNL1        0.1286
     26 C          67.6904   92.0249   15.4474 C.ar    1  UNL1        0.1623
     27 F          68.2191   91.9861   16.8507 F       1  UNL1       -0.2024
     28 C          66.2111   91.9872   15.2021 C.ar    1  UNL1        0.0703
@<TRIPOS>BOND
     1    10    11    2
     2    11    12   am
     3    12    14    1
     4    14    15   ar
     5    15    16   ar
     6    16    17   ar
     7    17    18    1
     8    17    19   ar
     9    19    20   ar
    10    11     1    1
    11     1     2   ar
    12     2     3   ar
    13     3    21    1
    14    21    22    1
    15    22    23   ar
    16    23    24   ar
    17    24    25   ar
    18    25    26   ar
    19    26    27    1
    20    26    28   ar
    21     3     4   ar
    22     4     5   ar
    23     5     6   ar
    24     6     7   ar
    25     7     8   ar
    26     8     9   ar
    27    20    14   ar
    28     9     1   ar
    29    28    22   ar
    30     9     5   ar
    31    12    13    1
@<TRIPOS>MOLECULE
*****
 28 31 0 0 0
SMALL
GASTEIGER

@<TRIPOS>ATOM
      1 C          61.8493   87.2328   10.3659 C.ar    1  UNL1        0.0926
      2 C          62.4035   88.4943   10.9589 C.ar    1  UNL1        0.0467
      3 C          61.9044   89.8274   10.4862 C.ar    1  UNL1        0.1648
      4 C          60.8512   89.8992    9.4205 C.ar    1  UNL1        0.1395
      5 N          60.2971   88.6377    8.8276 N.ar    1  UNL1       -0.2060
      6 N          59.2603   88.3964    7.7708 N.ar    1  UNL1       -0.1408
      7 C          59.1186   86.9141    7.5904 C.ar    1  UNL1        0.2213
      8 N          60.0678   86.2392    8.5357 N.ar    1  UNL1       -0.2033
      9 C          60.7961   87.3045    9.3003 C.ar    1  UNL1        0.1702
     10 O          63.0163   84.9640    9.8749 O.2     1  UNL1       -0.2697
     11 C          62.3484   85.8996   10.8387 C.2     1  UNL1        0.2536
     12 N          62.1797   85.5019   12.2751 N.am    1  UNL1       -0.2657
     13 H          61.7414   86.1159   12.9077 H       1  UNL1        0.1566
     14 C          62.6788   84.1687   12.7478 C.ar    1  UNL1        0.1345
     15 C          62.4395   82.9415   11.9190 C.ar    1  UNL1        0.0368
     16 C          62.9386   81.6083   12.3916 C.ar    1  UNL1        0.0341
     17 C          63.6770   81.5021   13.6929 C.ar    1  UNL1        0.1593
     18 F          64.1761   80.1690   14.1655 F       1  UNL1       -0.2025
     19 C          63.9163   82.7294   14.5217 C.ar    1  UNL1        0.1298
     20 N          63.4172   84.0625   14.0491 N.ar    1  UNL1       -0.2267
     21 O          62.4586   91.0890   11.0791 O.3     1  UNL1       -0.4503
     22 C          63.4440   91.0174   12.2078 C.ar    1  UNL1        0.1667
     23 C          64.7180   91.8066   12.1423 C.ar    1  UNL1        0.1364
     24 N          65.7034   91.7350   13.2709 N.ar    1  UNL1       -0.2368
     25 C          65.4148   90.8743   14.4651 C.ar    1  UNL1        0.1286
     26 C          64.1409   90.0852   14.5306 C.ar    1  UNL1        0.1623
     27 F          63.8522   89.2245   15.7247 F       1  UNL1       -0.2024
     28 C          63.1554   90.1568   13.4019 C.ar    1  UNL1        0.0703
@<TRIPOS>BOND
     1    10    11    2
     2    11    12   am
     3    12    14    1
     4    14    15   ar
     5    15    16   ar
     6    16    17   ar
     7    17    18    1
     8    17    19   ar
     9    19    20   ar
    10    11     1    1
    11     1     2   ar
    12     2     3   ar
    13     3    21    1
    14    21    22    1
    15    22    23   ar
    16    23    24   ar
    17    24    25   ar
    18    25    26   ar
    19    26    27    1
    20    26    28   ar
    21     3     4   ar
    22     4     5   ar
    23     5     6   ar
    24     6     7   ar
    25     7     8   ar
    26     8     9   ar
    27    20    14   ar
    28     9     1   ar
    29    28    22   ar
    30     9     5   ar
    31    12    13    1
@<TRIPOS>MOLECULE
*****
 28 31 0 0 0
SMALL
GASTEIGER

@<TRIPOS>ATOM
      1 C          62.6349   88.0473   11.9198 C.ar    1  UNL1        0.0926
      2 C          63.3273   89.2527   12.4833 C.ar    1  UNL1        0.0467
      3 C          63.0449   90.6128   11.9174 C.ar    1  UNL1        0.1648
      4 C          62.0700   90.7676   10.7879 C.ar    1  UNL1        0.1395
      5 N          61.3775   89.5622   10.2244 N.ar    1  UNL1       -0.2060
      6 N          60.3747   89.4057    9.1200 N.ar    1  UNL1       -0.1408
      7 C          60.0374   87.9487    9.0033 C.ar    1  UNL1        0.2213
      8 N          60.8317   87.2049   10.0356 N.ar    1  UNL1       -0.2033
      9 C          61.6600   88.2021   10.7903 C.ar    1  UNL1        0.1702
     10 O          63.8705   86.5358   13.6341 O.2     1  UNL1       -0.2697
     11 C          62.9173   86.6872   12.4857 C.2     1  UNL1        0.2536
     12 N          62.2468   85.4784   11.9032 N.am    1  UNL1       -0.2657
     13 H          61.6212   85.5778   11.1495 H       1  UNL1        0.1566
     14 C          62.5293   84.1183   12.4692 C.ar    1  UNL1        0.1345
     15 C          62.9759   83.0078   11.5652 C.ar    1  UNL1        0.0368
     16 C          63.2584   81.6477   12.1311 C.ar    1  UNL1        0.0341
     17 C          63.0944   81.3981   13.6010 C.ar    1  UNL1        0.1593
     18 F          63.3769   80.0380   14.1669 F       1  UNL1       -0.2025
     19 C          62.6477   82.5087   14.5051 C.ar    1  UNL1        0.1298
     20 N          62.3652   83.8687   13.9392 N.ar    1  UNL1       -0.2267
     21 O          63.7374   91.8182   12.4809 O.3     1  UNL1       -0.4503
     22 C          65.1928   92.0471   12.1992 C.ar    1  UNL1        0.1667
     23 C          66.1972   91.9407   13.3082 C.ar    1  UNL1        0.1364
     24 N          67.6526   92.1696   13.0265 N.ar    1  UNL1       -0.2368
     25 C          68.1037   92.5049   11.6358 C.ar    1  UNL1        0.1286
     26 C          67.0993   92.6113   10.5268 C.ar    1  UNL1        0.1623
     27 F          67.5502   92.9467    9.1359 F       1  UNL1       -0.2024
     28 C          65.6439   92.3824   10.8085 C.ar    1  UNL1        0.0703
@<TRIPOS>BOND
     1    10    11    2
     2    11    12   am
     3    12    14    1
     4    14    15   ar
     5    15    16   ar
     6    16    17   ar
     7    17    18    1
     8    17    19   ar
     9    19    20   ar
    10    11     1    1
    11     1     2   ar
    12     2     3   ar
    13     3    21    1
    14    21    22    1
    15    22    23   ar
    16    23    24   ar
    17    24    25   ar
    18    25    26   ar
    19    26    27    1
    20    26    28   ar
    21     3     4   ar
    22     4     5   ar
    23     5     6   ar
    24     6     7   ar
    25     7     8   ar
    26     8     9   ar
    27    20    14   ar
    28     9     1   ar
    29    28    22   ar
    30     9     5   ar
    31    12    13    1
@<TRIPOS>MOLECULE
*****
 28 31 0 0 0
SMALL
GASTEIGER

@<TRIPOS>ATOM
      1 C          62.9257   88.2643   12.2392 C.ar    1  UNL1        0.0926
      2 C          63.1854   86.8031   12.0215 C.ar    1  UNL1        0.0467
      3 C          62.2877   86.0079   11.1206 C.ar    1  UNL1        0.1648
      4 C          61.1302   86.6739   10.4372 C.ar    1  UNL1        0.1395
      5 N          60.8706   88.1351   10.6549 N.ar    1  UNL1       -0.2060
      6 N          59.8151   89.0574   10.1208 N.ar    1  UNL1       -0.1408
      7 C          60.0605   90.4226   10.6917 C.ar    1  UNL1        0.2213
      8 N          61.2676   90.3441   11.5786 N.ar    1  UNL1       -0.2033
      9 C          61.7683   88.9303   11.5559 C.ar    1  UNL1        0.1702
     10 O          64.4455   88.4111   14.3413 O.2     1  UNL1       -0.2697
     11 C          63.8235   89.0595   13.1401 C.2     1  UNL1        0.2536
     12 N          64.0992   90.5031   12.8400 N.am    1  UNL1       -0.2657
     13 H          63.6909   90.9287   12.0516 H       1  UNL1        0.1566
     14 C          64.9969   91.2982   13.7410 C.ar    1  UNL1        0.1345
     15 C          66.3094   91.8124   13.2280 C.ar    1  UNL1        0.0368
     16 C          67.2072   92.6075   14.1290 C.ar    1  UNL1        0.0341
     17 C          66.7926   92.8885   15.5429 C.ar    1  UNL1        0.1593
     18 F          67.6903   93.6836   16.4438 F       1  UNL1       -0.2025
     19 C          65.4800   92.3743   16.0558 C.ar    1  UNL1        0.1298
     20 N          64.5823   91.5793   15.1549 N.ar    1  UNL1       -0.2267
     21 O          62.5474   84.5466   10.9029 O.3     1  UNL1       -0.4503
     22 C          62.5334   83.6008   12.0670 C.ar    1  UNL1        0.1667
     23 C          62.5187   84.1362   13.4682 C.ar    1  UNL1        0.1364
     24 N          62.5048   83.1904   14.6323 N.ar    1  UNL1       -0.2368
     25 C          62.5055   81.7092   14.3954 C.ar    1  UNL1        0.1286
     26 C          62.5202   81.1739   12.9943 C.ar    1  UNL1        0.1623
     27 F          62.5209   79.6927   12.7572 F       1  UNL1       -0.2024
     28 C          62.5342   82.1197   11.8301 C.ar    1  UNL1        0.0703
@<TRIPOS>BOND
     1    10    11    2
     2    11    12   am
     3    12    14    1
     4    14    15   ar
     5    15    16   ar
     6    16    17   ar
     7    17    18    1
     8    17    19   ar
     9    19    20   ar
    10    11     1    1
    11     1     2   ar
    12     2     3   ar
    13     3    21    1
    14    21    22    1
    15    22    23   ar
    16    23    24   ar
    17    24    25   ar
    18    25    26   ar
    19    26    27    1
    20    26    28   ar
    21     3     4   ar
    22     4     5   ar
    23     5     6   ar
    24     6     7   ar
    25     7     8   ar
    26     8     9   ar
    27    20    14   ar
    28     9     1   ar
    29    28    22   ar
    30     9     5   ar
    31    12    13    1
@<TRIPOS>MOLECULE
*****
 28 31 0 0 0
SMALL
GASTEIGER

@<TRIPOS>ATOM
      1 C          63.0706   86.5956   12.5027 C.ar    1  UNL1        0.0926
      2 C          63.2718   85.1950   13.0005 C.ar    1  UNL1        0.0467
      3 C          63.9989   84.9546   14.2902 C.ar    1  UNL1        0.1648
      4 C          64.5248   86.1148   15.0823 C.ar    1  UNL1        0.1395
      5 N          64.3237   87.5154   14.5845 N.ar    1  UNL1       -0.2060
      6 N          64.7267   88.8472   15.1447 N.ar    1  UNL1       -0.1408
      7 C          64.2487   89.9108   14.2011 C.ar    1  UNL1        0.2213
      8 N          63.5502   89.2363   13.0578 N.ar    1  UNL1       -0.2033
      9 C          63.5966   87.7558   13.2947 C.ar    1  UNL1        0.1702
     10 O          62.6186   85.9648   10.0232 O.2     1  UNL1       -0.2697
     11 C          62.3436   86.8360   11.2129 C.2     1  UNL1        0.2536
     12 N          61.3414   87.9477   11.1128 N.am    1  UNL1       -0.2657
     13 H          61.1609   88.5195   11.8936 H       1  UNL1        0.1566
     14 C          60.6144   88.1880    9.8229 C.ar    1  UNL1        0.1345
     15 C          60.6806   89.5340    9.1643 C.ar    1  UNL1        0.0368
     16 C          59.9536   89.7744    7.8744 C.ar    1  UNL1        0.0341
     17 C          59.1603   88.6688    7.2433 C.ar    1  UNL1        0.1593
     18 F          58.4334   88.9092    5.9535 F       1  UNL1       -0.2025
     19 C          59.0941   87.3228    7.9020 C.ar    1  UNL1        0.1298
     20 N          59.8211   87.0824    9.1918 N.ar    1  UNL1       -0.2267
     21 O          64.2000   83.5539   14.7880 O.3     1  UNL1       -0.4503
     22 C          63.4446   82.4195   14.1614 C.ar    1  UNL1        0.1667
     23 C          64.0791   81.6071   13.0718 C.ar    1  UNL1        0.1364
     24 N          63.3236   80.4727   12.4452 N.ar    1  UNL1       -0.2368
     25 C          61.9337   80.1508   12.9083 C.ar    1  UNL1        0.1286
     26 C          61.2992   80.9633   13.9980 C.ar    1  UNL1        0.1623
     27 F          59.9092   80.6414   14.4612 F       1  UNL1       -0.2024
     28 C          62.0547   82.0976   14.6245 C.ar    1  UNL1        0.0703
@<TRIPOS>BOND
     1    10    11    2
     2    11    12   am
     3    12    14    1
     4    14    15   ar
     5    15    16   ar
     6    16    17   ar
     7    17    18    1
     8    17    19   ar
     9    19    20   ar
    10    11     1    1
    11     1     2   ar
    12     2     3   ar
    13     3    21    1
    14    21    22    1
    15    22    23   ar
    16    23    24   ar
    17    24    25   ar
    18    25    26   ar
    19    26    27    1
    20    26    28   ar
    21     3     4   ar
    22     4     5   ar
    23     5     6   ar
    24     6     7   ar
    25     7     8   ar
    26     8     9   ar
    27    20    14   ar
    28     9     1   ar
    29    28    22   ar
    30     9     5   ar
    31    12    13    1
@<TRIPOS>MOLECULE
*****
 28 31 0 0 0
SMALL
GASTEIGER

@<TRIPOS>ATOM
      1 C          61.5152   87.2693   10.0908 C.ar    1  UNL1        0.0926
      2 C          60.5749   87.2822    8.9222 C.ar    1  UNL1        0.0467
      3 C          60.0105   88.5811    8.4281 C.ar    1  UNL1        0.1648
      4 C          60.3864   89.8672    9.1025 C.ar    1  UNL1        0.1395
      5 N          61.3267   89.8543   10.2711 N.ar    1  UNL1       -0.2060
      6 N          61.8750   90.9547   11.1304 N.ar    1  UNL1       -0.1408
      7 C          62.7782   90.3359   12.1556 C.ar    1  UNL1        0.2213
      8 N          62.7882   88.8530   11.9300 N.ar    1  UNL1       -0.2033
      9 C          61.8911   88.5553   10.7653 C.ar    1  UNL1        0.1702
     10 O          62.7066   85.0092    9.6190 O.2     1  UNL1       -0.2697
     11 C          62.0796   85.9704   10.5850 C.2     1  UNL1        0.2536
     12 N          62.0171   85.6326   12.0451 N.am    1  UNL1       -0.2657
     13 H          61.6056   86.2634   12.6792 H       1  UNL1        0.1566
     14 C          62.5816   84.3336   12.5392 C.ar    1  UNL1        0.1345
     15 C          62.5459   83.1181   11.6610 C.ar    1  UNL1        0.0368
     16 C          63.1103   81.8191   12.1550 C.ar    1  UNL1        0.0341
     17 C          63.7104   81.7356   13.5272 C.ar    1  UNL1        0.1593
     18 F          64.2748   80.4367   14.0212 F       1  UNL1       -0.2025
     19 C          63.7460   82.9512   14.4054 C.ar    1  UNL1        0.1298
     20 N          63.1816   84.2501   13.9114 N.ar    1  UNL1       -0.2267
     21 O          59.0701   88.5940    7.2594 O.3     1  UNL1       -0.4503
     22 C          59.0879   89.7429    6.2952 C.ar    1  UNL1        0.1667
     23 C          57.8164   90.4697    5.9710 C.ar    1  UNL1        0.1364
     24 N          57.8341   91.6186    5.0068 N.ar    1  UNL1       -0.2368
     25 C          59.1233   92.0406    4.3666 C.ar    1  UNL1        0.1286
     26 C          60.3948   91.3138    4.6908 C.ar    1  UNL1        0.1623
     27 F          61.6841   91.7358    4.0507 F       1  UNL1       -0.2024
     28 C          60.3771   90.1649    5.6550 C.ar    1  UNL1        0.0703
@<TRIPOS>BOND
     1    10    11    2
     2    11    12   am
     3    12    14    1
     4    14    15   ar
     5    15    16   ar
     6    16    17   ar
     7    17    18    1
     8    17    19   ar
     9    19    20   ar
    10    11     1    1
    11     1     2   ar
    12     2     3   ar
    13     3    21    1
    14    21    22    1
    15    22    23   ar
    16    23    24   ar
    17    24    25   ar
    18    25    26   ar
    19    26    27    1
    20    26    28   ar
    21     3     4   ar
    22     4     5   ar
    23     5     6   ar
    24     6     7   ar
    25     7     8   ar
    26     8     9   ar
    27    20    14   ar
    28     9     1   ar
    29    28    22   ar
    30     9     5   ar
    31    12    13    1
@<TRIPOS>MOLECULE
*****
 28 31 0 0 0
SMALL
GASTEIGER

@<TRIPOS>ATOM
      1 C          62.5420   88.9493   10.9530 C.ar    1  UNL1        0.0926
      2 C          63.0183   87.9136   11.9278 C.ar    1  UNL1        0.0467
      3 C          62.3616   86.5657   11.9707 C.ar    1  UNL1        0.1648
      4 C          61.2285   86.2535   11.0386 C.ar    1  UNL1        0.1395
      5 N          60.7523   87.2892   10.0637 N.ar    1  UNL1       -0.2060
      6 N          59.6656   87.2699    9.0299 N.ar    1  UNL1       -0.1408
      7 C          59.6508   88.6059    8.3481 C.ar    1  UNL1        0.2213
      8 N          60.7282   89.4509    8.9606 N.ar    1  UNL1       -0.2033
      9 C          61.4090   88.6371   10.0209 C.ar    1  UNL1        0.1702
     10 O          62.8143   91.2855    9.8491 O.2     1  UNL1       -0.2697
     11 C          63.1988   90.2972   10.9102 C.2     1  UNL1        0.2536
     12 N          64.2399   90.6569   11.9283 N.am    1  UNL1       -0.2657
     13 H          64.4922   90.0083   12.6247 H       1  UNL1        0.1566
     14 C          64.8966   92.0049   11.8854 C.ar    1  UNL1        0.1345
     15 C          64.9790   92.7581   10.5909 C.ar    1  UNL1        0.0368
     16 C          65.6357   94.1060   10.5479 C.ar    1  UNL1        0.0341
     17 C          66.2100   94.7008   11.7995 C.ar    1  UNL1        0.1593
     18 F          66.8666   96.0486   11.7565 F       1  UNL1       -0.2025
     19 C          66.1276   93.9475   13.0941 C.ar    1  UNL1        0.1298
     20 N          65.4709   92.5996   13.1370 N.ar    1  UNL1       -0.2267
     21 O          62.8380   85.5300   12.9456 O.3     1  UNL1       -0.4503
     22 C          62.9114   84.0896   12.5334 C.ar    1  UNL1        0.1667
     23 C          63.5602   83.7133   11.2344 C.ar    1  UNL1        0.1364
     24 N          63.6336   82.2730   10.8222 N.ar    1  UNL1       -0.2368
     25 C          63.0583   81.2088   11.7090 C.ar    1  UNL1        0.1286
     26 C          62.4096   81.5850   13.0081 C.ar    1  UNL1        0.1623
     27 F          61.8342   80.5209   13.8951 F       1  UNL1       -0.2024
     28 C          62.3361   83.0254   13.4203 C.ar    1  UNL1        0.0703
@<TRIPOS>BOND
     1    10    11    2
     2    11    12   am
     3    12    14    1
     4    14    15   ar
     5    15    16   ar
     6    16    17   ar
     7    17    18    1
     8    17    19   ar
     9    19    20   ar
    10    11     1    1
    11     1     2   ar
    12     2     3   ar
    13     3    21    1
    14    21    22    1
    15    22    23   ar
    16    23    24   ar
    17    24    25   ar
    18    25    26   ar
    19    26    27    1
    20    26    28   ar
    21     3     4   ar
    22     4     5   ar
    23     5     6   ar
    24     6     7   ar
    25     7     8   ar
    26     8     9   ar
    27    20    14   ar
    28     9     1   ar
    29    28    22   ar
    30     9     5   ar
    31    12    13    1
