@<TRIPOS>MOLECULE
*****
 46 49 0 0 0
SMALL
GASTEIGER

@<TRIPOS>ATOM
      1 C          63.8420   90.8250   12.5141 C.3     1  UNL1        0.0736
      2 C          63.1298   90.8293   11.1940 C.3     1  UNL1        0.0217
      3 C          62.7104   89.4218   10.8889 C.3     1  UNL1        0.0282
      4 C          63.1635   88.5476   12.0204 C.3     1  UNL1        0.1348
      5 C          63.0296   87.0739   12.2659 C.ar    1  UNL1       -0.0061
      6 C          62.3302   86.2067   11.2614 C.ar    1  UNL1       -0.0032
      7 C          62.1963   84.7331   11.5070 C.ar    1  UNL1       -0.0015
      8 C          62.7618   84.1265   12.7569 C.ar    1  UNL1        0.0232
      9 C          63.4611   84.9937   13.7614 C.ar    1  UNL1       -0.0057
     10 C          63.5950   86.4673   13.5159 C.ar    1  UNL1       -0.0248
     11 C          64.2943   87.3346   14.5203 C.3     1  UNL1        0.0262
     12 C          64.4282   88.8082   14.2748 C.3     1  UNL1        0.0083
     13 C          63.8628   89.4148   13.0249 C.3     1  UNL1        0.0429
     14 C          65.6472   92.6894   12.6356 C.2     1  UNL1        0.2482
     15 O          66.2763   92.1621   11.3801 O.2     1  UNL1       -0.2725
     16 N          64.4301   92.0209   13.2027 N.am    1  UNL1       -0.3040
     17 H          64.0173   92.3670   14.0267 H       1  UNL1        0.1494
     18 C          66.8236   95.0811   14.0126 C.3     1  UNL1        0.0406
     19 C          66.2354   93.8853   13.3241 C.3     1  UNL1        0.1782
     20 O          66.1434   94.6660   12.0466 O.3     1  UNL1       -0.3765
     21 H          66.4822   95.5634   12.1910 H       1  UNL1        0.2109
     22 C          66.3274   93.1045   14.6015 C.3     1  UNL1        0.1864
     23 S          67.6606   92.8888   15.2543 S.O2    1  UNL1       -0.0054
     24 C          68.9938   92.6730   15.9071 C.3     1  UNL1        0.1762
     25 O          67.0465   93.1552   16.5966 O.2     1  UNL1       -0.1728
     26 O          68.2748   92.6223   13.9120 O.2     1  UNL1       -0.1728
     27 S          62.4419   87.8108   10.9312 S.O2    1  UNL1        0.0090
     28 O          63.0220   87.5895   10.4311 O.2     1  UNL1       -0.1684
     29 O          61.1373   88.0562   11.6293 O.2     1  UNL1       -0.1684
     30 C          61.7204   87.0739    9.8419 C.ar    1  UNL1        0.1060
     31 C          60.2329   87.2082    9.7036 C.ar    1  UNL1        0.0207
     32 C          59.5114   86.4714    8.6144 C.ar    1  UNL1        0.0310
     33 C          60.2774   85.6002    7.6634 C.ar    1  UNL1        0.1402
     34 F          59.5559   84.8633    6.5741 F       1  UNL1       -0.2042
     35 C          61.7650   85.4659    7.8018 C.ar    1  UNL1        0.0310
     36 C          62.4864   86.2027    8.8910 C.ar    1  UNL1        0.0207
     37 C          62.6278   82.6528   13.0024 C.3     1  UNL1        0.3242
     38 F          61.8156   82.9315   14.2322 F       1  UNL1       -0.2176
     39 C          62.4939   81.1791   13.2479 C.3     1  UNL1        0.4363
     40 F          62.3600   79.7054   13.4934 F       1  UNL1       -0.1666
     41 F          61.0036   81.3282   13.3295 F       1  UNL1       -0.1666
     42 F          63.9568   80.8515   13.1968 F       1  UNL1       -0.1666
     43 C          63.4401   82.3741   11.7726 C.3     1  UNL1        0.4363
     44 F          64.2525   82.0954   10.5427 F       1  UNL1       -0.1666
     45 F          62.4180   81.5352   11.0645 F       1  UNL1       -0.1666
     46 F          64.7328   83.0935   12.0206 F       1  UNL1       -0.1666
@<TRIPOS>BOND
     1    19    18    1
     2    19    20    1
     3    19    22    1
     4    22    23    1
     5    23    24    1
     6    23    25    2
     7    23    26    2
     8    19    14    1
     9    14    15    2
    10    14    16   am
    11     1    16    1
    12     1     2    1
    13     2     3    1
    14     3     4    1
    15     4    27    1
    16    27    28    2
    17    27    29    2
    18    27    30    1
    19    30    31   ar
    20    31    32   ar
    21    32    33   ar
    22    33    34    1
    23    33    35   ar
    24    35    36   ar
    25     4     5    1
    26     5     6   ar
    27     6     7   ar
    28     7     8   ar
    29     8    37    1
    30    37    38    1
    31    37    39    1
    32    39    40    1
    33    39    41    1
    34    39    42    1
    35    37    43    1
    36    43    44    1
    37    43    45    1
    38    43    46    1
    39     8     9   ar
    40     9    10   ar
    41    10    11    1
    42    11    12    1
    43    13    12    1
    44    13     1    1
    45    13     4    1
    46    36    30   ar
    47    10     5   ar
    48    20    21    1
    49    16    17    1
@<TRIPOS>MOLECULE
*****
 46 49 0 0 0
SMALL
GASTEIGER

@<TRIPOS>ATOM
      1 C          63.6791   91.2849   11.5629 C.3     1  UNL1        0.0736
      2 C          63.0284   91.0580   10.2306 C.3     1  UNL1        0.0217
      3 C          62.6660   89.6057   10.1331 C.3     1  UNL1        0.0282
      4 C          63.0928   88.9351   11.4051 C.3     1  UNL1        0.1348
      5 C          62.9921   87.5134   11.8728 C.ar    1  UNL1       -0.0061
      6 C          62.3659   86.4756   10.9891 C.ar    1  UNL1       -0.0032
      7 C          62.2652   85.0540   11.4568 C.ar    1  UNL1       -0.0015
      8 C          62.7907   84.6701   12.8083 C.ar    1  UNL1        0.0232
      9 C          63.4169   85.7079   13.6920 C.ar    1  UNL1       -0.0057
     10 C          63.5175   87.1295   13.2243 C.ar    1  UNL1       -0.0248
     11 C          64.1437   88.1673   14.1080 C.3     1  UNL1        0.0262
     12 C          64.2444   89.5889   13.6403 C.3     1  UNL1        0.0083
     13 C          63.7189   89.9728   12.2888 C.3     1  UNL1        0.0429
     14 C          65.4896   93.1482   11.5528 C.2     1  UNL1        0.2482
     15 O          66.2606   92.3934   10.5108 O.2     1  UNL1       -0.2725
     16 N          64.1989   92.5940   12.0789 N.am    1  UNL1       -0.3040
     17 H          63.6929   93.0895   12.7628 H       1  UNL1        0.1494
     18 C          66.5292   95.7665   12.5844 C.3     1  UNL1        0.0406
     19 C          66.0094   94.4573   12.0687 C.3     1  UNL1        0.1782
     20 O          66.5012   93.7731   13.3096 O.3     1  UNL1       -0.3765
     21 H          66.9241   94.4237   13.8916 H       1  UNL1        0.2109
     22 C          65.5176   95.1415   10.8277 C.3     1  UNL1        0.1864
     23 S          66.4762   95.9034    9.9614 S.O2    1  UNL1       -0.0054
     24 C          67.4348   96.6654    9.0950 C.3     1  UNL1        0.1762
     25 O          67.5727   94.9515   10.3375 O.2     1  UNL1       -0.1728
     26 O          65.3797   96.8554    9.5852 O.2     1  UNL1       -0.1728
     27 S          62.4444   88.0120   10.4164 S.O2    1  UNL1        0.0090
     28 O          63.0483   87.7650    9.9584 O.2     1  UNL1       -0.1684
     29 O          61.1116   88.2608   11.0579 O.2     1  UNL1       -0.1684
     30 C          61.7960   87.0889    9.4276 C.ar    1  UNL1        0.1060
     31 C          62.6314   86.1133    8.6529 C.ar    1  UNL1        0.0207
     32 C          61.9832   85.1902    7.6642 C.ar    1  UNL1        0.0310
     33 C          60.4995   85.2427    7.4502 C.ar    1  UNL1        0.1402
     34 F          59.8511   84.3196    6.4614 F       1  UNL1       -0.2042
     35 C          59.6640   86.2183    8.2249 C.ar    1  UNL1        0.0310
     36 C          60.3123   87.1414    9.2136 C.ar    1  UNL1        0.0207
     37 C          62.6900   83.2484   13.2760 C.3     1  UNL1        0.3242
     38 F          62.0442   83.7126   14.5478 F       1  UNL1       -0.2176
     39 C          62.5893   81.8268   13.7438 C.3     1  UNL1        0.4363
     40 F          62.4886   80.4051   14.2116 F       1  UNL1       -0.1666
     41 F          61.1336   82.0288   14.0442 F       1  UNL1       -0.1666
     42 F          64.0218   81.4531   13.5027 F       1  UNL1       -0.1666
     43 C          63.3358   82.7842   12.0043 C.3     1  UNL1        0.4363
     44 F          63.9816   82.3200   10.7325 F       1  UNL1       -0.1666
     45 F          62.2104   81.9100   11.5363 F       1  UNL1       -0.1666
     46 F          64.6693   83.4713   12.0025 F       1  UNL1       -0.1666
@<TRIPOS>BOND
     1    19    18    1
     2    19    20    1
     3    19    22    1
     4    22    23    1
     5    23    24    1
     6    23    25    2
     7    23    26    2
     8    19    14    1
     9    14    15    2
    10    14    16   am
    11     1    16    1
    12     1     2    1
    13     2     3    1
    14     3     4    1
    15     4    27    1
    16    27    28    2
    17    27    29    2
    18    27    30    1
    19    30    31   ar
    20    31    32   ar
    21    32    33   ar
    22    33    34    1
    23    33    35   ar
    24    35    36   ar
    25     4     5    1
    26     5     6   ar
    27     6     7   ar
    28     7     8   ar
    29     8    37    1
    30    37    38    1
    31    37    39    1
    32    39    40    1
    33    39    41    1
    34    39    42    1
    35    37    43    1
    36    43    44    1
    37    43    45    1
    38    43    46    1
    39     8     9   ar
    40     9    10   ar
    41    10    11    1
    42    11    12    1
    43    13    12    1
    44    13     1    1
    45    13     4    1
    46    36    30   ar
    47    10     5   ar
    48    20    21    1
    49    16    17    1
