@<TRIPOS>MOLECULE
*****
 46 52 0 0 0
SMALL
GASTEIGER

@<TRIPOS>ATOM
      1 C          64.7617   88.9131   14.6781 C.2     1  UNL1        0.0770
      2 N          65.9037   89.6761   15.2811 N.2     1  UNL1       -0.2460
      3 C          66.0525   90.9627   14.5244 C.2     1  UNL1        0.0773
      4 C          67.0085   92.1091   14.6719 C.2     1  UNL1        0.0182
      5 C          66.9144   93.2876   13.7488 C.2     1  UNL1       -0.0062
      6 C          65.8644   93.3197   12.6781 C.2     1  UNL1       -0.0322
      7 C          64.9084   92.1733   12.5305 C.3     1  UNL1        0.0500
      8 C          65.0025   90.9948   13.4536 C.2     1  UNL1       -0.0029
      9 C          64.2047   89.7280   13.5487 C.2     1  UNL1       -0.0057
     10 C          62.1443   85.9918   18.0863 C.3     1  UNL1        0.0310
     11 C          62.9554   86.1101   16.8299 C.ar    1  UNL1       -0.0221
     12 C          63.2688   84.8861   16.0215 C.ar    1  UNL1       -0.0085
     13 C          64.0798   85.0045   14.7652 C.ar    1  UNL1       -0.0221
     14 C          64.3932   83.7804   13.9567 C.3     1  UNL1        0.0310
     15 C          64.5774   86.3468   14.3174 C.ar    1  UNL1       -0.0028
     16 C          64.2640   87.5708   15.1259 C.ar    1  UNL1        0.0167
     17 C          63.4530   87.4524   16.3821 C.ar    1  UNL1       -0.0028
     18 C          65.7704   94.4983   11.7549 C.3     1  UNL1        0.0845
     19 C          65.0644   93.6477   10.7410 C.3     1  UNL1        0.0132
     20 C          66.4764   95.3488   12.7688 C.3     1  UNL1        0.0132
     21 C          65.6763   95.6767   10.8317 C.2     1  UNL1        0.2281
     22 O          64.8263   96.8553   11.2041 O.2     1  UNL1       -0.2746
     23 N          67.1995   95.1669    8.6903 N.am    1  UNL1       -0.2809
     24 C          67.1145   96.2325    7.8555 C.3     1  UNL1        0.0933
     25 C          67.0941   96.8554    7.3174 C.3     1  UNL1        0.0200
     26 C          67.9441   95.6769    6.9449 C.3     1  UNL1        0.0034
     27 C          68.0382   94.4984    7.8681 C.3     1  UNL1        0.0199
     28 C          67.2822   94.4983    9.1637 C.3     1  UNL1        0.0753
     29 C          66.4323   95.6768    9.5361 C.3     1  UNL1        0.0199
     30 C          66.3382   96.8554    8.6129 C.3     1  UNL1        0.0034
     31 C          63.0523   89.3438   12.6687 C.3     1  UNL1        0.0393
     32 C          63.0413   88.0069   11.9884 C.3     1  UNL1        0.0062
     33 C          61.9109   90.2962   12.4690 C.3     1  UNL1        0.0730
     34 N          60.5012   89.8350   12.6927 N.3     1  UNL1       -0.2969
     35 H          60.0177   90.5906   13.1782 H       1  UNL1        0.1233
     36 C          59.6429   89.4525   11.5236 C.3     1  UNL1        0.0733
     37 C          60.1753   89.5839   10.1274 C.3     1  UNL1        0.0435
     38 C          60.2761   88.3742    9.2462 C.ar    1  UNL1       -0.0192
     39 C          59.1022   87.9534    8.4128 C.ar    1  UNL1       -0.0026
     40 C          59.2030   86.7437    7.5316 C.ar    1  UNL1        0.0210
     41 C          60.4779   85.9548    7.4839 C.ar    1  UNL1        0.1088
     42 N          60.8705   84.7274    6.7163 N.ar    1  UNL1       -0.1901
     43 S          62.2872   84.3896    7.0753 S.2     1  UNL1        0.1165
     44 N          62.7701   85.4082    8.0648 N.ar    1  UNL1       -0.1901
     45 C          61.6519   86.3756    8.3173 C.ar    1  UNL1        0.1085
     46 C          61.5510   87.5853    9.1985 C.ar    1  UNL1        0.0171
@<TRIPOS>BOND
     1    10    11    1
     2    11    12   ar
     3    12    13   ar
     4    13    14    1
     5    13    15   ar
     6    15    16   ar
     7    16     1    1
     8     1     2    2
     9     2     3    1
    10     3     4    2
    11     4     5    1
    12     5     6    2
    13     6    18    1
    14    18    19    1
    15    18    20    1
    16    18    21    1
    17    21    22    2
    18    21    23   am
    19    23    24    1
    20    24    25    1
    21    25    26    1
    22    26    27    1
    23    27    28    1
    24    28    29    1
    25    29    30    1
    26     6     7    1
    27     7     8    1
    28     8     9    2
    29     9    31    1
    30    31    32    1
    31    31    33    1
    32    33    34    1
    33    34    36    1
    34    36    37    1
    35    37    38    1
    36    38    39   ar
    37    39    40   ar
    38    40    41   ar
    39    41    42   ar
    40    42    43   ar
    41    43    44   ar
    42    44    45   ar
    43    45    46   ar
    44    16    17   ar
    45    17    11   ar
    46     9     1    1
    47    46    38   ar
    48     8     3    1
    49    45    41   ar
    50    28    23    1
    51    30    25    1
    52    34    35    1
@<TRIPOS>MOLECULE
*****
 46 52 0 0 0
SMALL
GASTEIGER

@<TRIPOS>ATOM
      1 C          61.8698   87.2721   10.8486 C.2     1  UNL1        0.0770
      2 N          60.9780   86.3931   10.0227 N.2     1  UNL1       -0.2460
      3 C          60.3981   87.2273    8.9192 C.2     1  UNL1        0.0773
      4 C          59.4533   86.8972    7.8019 C.2     1  UNL1        0.0182
      5 C          59.0418   87.9617    6.8285 C.2     1  UNL1       -0.0062
      6 C          59.5752   89.3562    6.9723 C.2     1  UNL1       -0.0322
      7 C          60.5201   89.6863    8.0896 C.3     1  UNL1        0.0500
      8 C          60.9315   88.6219    9.0630 C.2     1  UNL1       -0.0029
      9 C          61.8411   88.6496   10.2555 C.2     1  UNL1       -0.0057
     10 C          63.7691   83.5087   13.8866 C.3     1  UNL1        0.0310
     11 C          63.6025   84.9665   13.5747 C.ar    1  UNL1       -0.0221
     12 C          64.2191   86.0002   14.4698 C.ar    1  UNL1       -0.0085
     13 C          64.0525   87.4578   14.1579 C.ar    1  UNL1       -0.0221
     14 C          64.6691   88.4916   15.0531 C.3     1  UNL1        0.0310
     15 C          63.2694   87.8818   12.9508 C.ar    1  UNL1       -0.0028
     16 C          62.6529   86.8481   12.0557 C.ar    1  UNL1        0.0167
     17 C          62.8195   85.3905   12.3676 C.ar    1  UNL1       -0.0028
     18 C          59.1637   90.4207    5.9988 C.3     1  UNL1        0.0845
     19 C          60.5899   90.8723    5.8898 C.3     1  UNL1        0.0132
     20 C          57.7375   89.9692    6.1079 C.3     1  UNL1        0.0132
     21 C          58.7523   91.4852    5.0254 C.2     1  UNL1        0.2281
     22 O          57.3490   92.0148    5.0419 O.2     1  UNL1       -0.2746
     23 N          60.8755   92.0735    3.5050 N.am    1  UNL1       -0.2809
     24 C          60.5035   93.0360    2.6248 C.3     1  UNL1        0.0933
     25 C          60.3245   93.6194    2.0719 C.3     1  UNL1        0.0200
     26 C          61.7278   93.0897    2.0553 C.3     1  UNL1        0.0034
     27 C          62.1393   92.0253    3.0288 C.3     1  UNL1        0.0199
     28 C          61.1474   91.4904    4.0188 C.3     1  UNL1        0.0753
     29 C          59.7441   92.0200    4.0354 C.3     1  UNL1        0.0199
     30 C          59.3326   93.0845    3.0619 C.3     1  UNL1        0.0034
     31 C          62.5903   89.8449   10.7652 C.3     1  UNL1        0.0393
     32 C          63.4634   90.6351    9.8360 C.3     1  UNL1        0.0062
     33 C          62.4666   90.2500   12.2041 C.3     1  UNL1        0.0730
     34 N          63.2335   91.4317   12.7192 N.3     1  UNL1       -0.2969
     35 H          62.7289   91.7772   13.5355 H       1  UNL1        0.1233
     36 C          64.6671   91.2737   13.1312 C.3     1  UNL1        0.0733
     37 C          65.5435   92.4825   13.2761 C.3     1  UNL1        0.0435
     38 C          66.0940   93.1603   12.0565 C.ar    1  UNL1       -0.0192
     39 C          66.6838   92.3426   10.9459 C.ar    1  UNL1       -0.0026
     40 C          67.2343   93.0204    9.7262 C.ar    1  UNL1        0.0210
     41 C          67.1951   94.5159    9.6172 C.ar    1  UNL1        0.1088
     42 N          67.6581   95.4566    8.5445 N.ar    1  UNL1       -0.1901
     43 S          67.3544   96.8556    8.9921 S.2     1  UNL1        0.1165
     44 N          66.7038   96.7796   10.3415 N.ar    1  UNL1       -0.1901
     45 C          66.6053   95.3336   10.7279 C.ar    1  UNL1        0.1085
     46 C          66.0548   94.6558   11.9475 C.ar    1  UNL1        0.0171
@<TRIPOS>BOND
     1    10    11    1
     2    11    12   ar
     3    12    13   ar
     4    13    14    1
     5    13    15   ar
     6    15    16   ar
     7    16     1    1
     8     1     2    2
     9     2     3    1
    10     3     4    2
    11     4     5    1
    12     5     6    2
    13     6    18    1
    14    18    19    1
    15    18    20    1
    16    18    21    1
    17    21    22    2
    18    21    23   am
    19    23    24    1
    20    24    25    1
    21    25    26    1
    22    26    27    1
    23    27    28    1
    24    28    29    1
    25    29    30    1
    26     6     7    1
    27     7     8    1
    28     8     9    2
    29     9    31    1
    30    31    32    1
    31    31    33    1
    32    33    34    1
    33    34    36    1
    34    36    37    1
    35    37    38    1
    36    38    39   ar
    37    39    40   ar
    38    40    41   ar
    39    41    42   ar
    40    42    43   ar
    41    43    44   ar
    42    44    45   ar
    43    45    46   ar
    44    16    17   ar
    45    17    11   ar
    46     9     1    1
    47    46    38   ar
    48     8     3    1
    49    45    41   ar
    50    28    23    1
    51    30    25    1
    52    34    35    1
@<TRIPOS>MOLECULE
*****
 46 52 0 0 0
SMALL
GASTEIGER

@<TRIPOS>ATOM
      1 C          61.7681   86.8920   10.7319 C.2     1  UNL1        0.0770
      2 N          61.1128   86.0283    9.6953 N.2     1  UNL1       -0.2460
      3 C          60.5471   86.9255    8.6346 C.2     1  UNL1        0.0773
      4 C          59.7931   86.6343    7.3710 C.2     1  UNL1        0.0182
      5 C          59.3448   87.7613    6.4885 C.2     1  UNL1       -0.0062
      6 C          59.6505   89.1795    6.8696 C.2     1  UNL1       -0.0322
      7 C          60.4044   89.4707    8.1332 C.3     1  UNL1        0.0500
      8 C          60.8527   88.3437    9.0157 C.2     1  UNL1       -0.0029
      9 C          61.6073   88.3229   10.3119 C.2     1  UNL1       -0.0057
     10 C          64.6565   87.8648   14.9403 C.3     1  UNL1        0.0310
     11 C          63.9064   86.8958   14.0752 C.ar    1  UNL1       -0.0221
     12 C          63.8505   85.4442   14.4491 C.ar    1  UNL1       -0.0085
     13 C          63.1005   84.4753   13.5840 C.ar    1  UNL1       -0.0221
     14 C          63.0445   83.0236   13.9579 C.3     1  UNL1        0.0310
     15 C          62.4063   84.9578   12.3449 C.ar    1  UNL1       -0.0028
     16 C          62.4622   86.4094   11.9710 C.ar    1  UNL1        0.0167
     17 C          63.2123   87.3783   12.8361 C.ar    1  UNL1       -0.0028
     18 C          59.2021   90.3065    5.9871 C.3     1  UNL1        0.0845
     19 C          57.8059   89.7586    5.9967 C.3     1  UNL1        0.0132
     20 C          60.5984   90.8545    5.9774 C.3     1  UNL1        0.0132
     21 C          58.7538   91.4335    5.1046 C.2     1  UNL1        0.2281
     22 O          57.3594   91.9728    5.2269 O.2     1  UNL1       -0.2746
     23 N          60.8029   92.0984    3.5157 N.am    1  UNL1       -0.2809
     24 C          60.3975   93.1175    2.7177 C.3     1  UNL1        0.0933
     25 C          60.1972   93.7359    2.2123 C.3     1  UNL1        0.0200
     26 C          61.5916   93.1966    2.0899 C.3     1  UNL1        0.0034
     27 C          62.0400   92.0696    2.9724 C.3     1  UNL1        0.0199
     28 C          61.0940   91.4819    3.9773 C.3     1  UNL1        0.0753
     29 C          59.6997   92.0212    4.0997 C.3     1  UNL1        0.0199
     30 C          59.2513   93.1482    3.2171 C.3     1  UNL1        0.0034
     31 C          62.1125   89.5226   11.0572 C.3     1  UNL1        0.0393
     32 C          61.2993   90.1099   12.1726 C.3     1  UNL1        0.0062
     33 C          63.4308   90.1351   10.6874 C.3     1  UNL1        0.0730
     34 N          63.8681   91.4184   11.3291 N.3     1  UNL1       -0.2969
     35 H          63.0219   91.9539   11.5232 H       1  UNL1        0.1233
     36 C          64.6627   91.3883   12.6010 C.3     1  UNL1        0.0733
     37 C          65.9990   92.0665   12.6667 C.3     1  UNL1        0.0435
     38 C          66.4706   92.9074   11.5177 C.ar    1  UNL1       -0.0192
     39 C          67.4610   92.3512   10.5380 C.ar    1  UNL1       -0.0026
     40 C          67.9326   93.1921    9.3889 C.ar    1  UNL1        0.0210
     41 C          67.4139   94.5893    9.2195 C.ar    1  UNL1        0.1088
     42 N          67.6941   95.6463    8.1927 N.ar    1  UNL1       -0.1901
     43 S          66.8769   96.8559    8.5378 S.2     1  UNL1        0.1165
     44 N          66.0917   96.5464    9.7778 N.ar    1  UNL1       -0.1901
     45 C          66.4236   95.1455   10.1991 C.ar    1  UNL1        0.1085
     46 C          65.9519   94.3046   11.3482 C.ar    1  UNL1        0.0171
@<TRIPOS>BOND
     1    10    11    1
     2    11    12   ar
     3    12    13   ar
     4    13    14    1
     5    13    15   ar
     6    15    16   ar
     7    16     1    1
     8     1     2    2
     9     2     3    1
    10     3     4    2
    11     4     5    1
    12     5     6    2
    13     6    18    1
    14    18    19    1
    15    18    20    1
    16    18    21    1
    17    21    22    2
    18    21    23   am
    19    23    24    1
    20    24    25    1
    21    25    26    1
    22    26    27    1
    23    27    28    1
    24    28    29    1
    25    29    30    1
    26     6     7    1
    27     7     8    1
    28     8     9    2
    29     9    31    1
    30    31    32    1
    31    31    33    1
    32    33    34    1
    33    34    36    1
    34    36    37    1
    35    37    38    1
    36    38    39   ar
    37    39    40   ar
    38    40    41   ar
    39    41    42   ar
    40    42    43   ar
    41    43    44   ar
    42    44    45   ar
    43    45    46   ar
    44    16    17   ar
    45    17    11   ar
    46     9     1    1
    47    46    38   ar
    48     8     3    1
    49    45    41   ar
    50    28    23    1
    51    30    25    1
    52    34    35    1
@<TRIPOS>MOLECULE
*****
 46 52 0 0 0
SMALL
GASTEIGER

@<TRIPOS>ATOM
      1 C          64.7697   89.1812   14.7844 C.2     1  UNL1        0.0770
      2 N          65.8236   90.0468   15.4089 N.2     1  UNL1       -0.2460
      3 C          65.9508   91.2918   14.5820 C.2     1  UNL1        0.0773
      4 C          66.8286   92.5006   14.7163 C.2     1  UNL1        0.0182
      5 C          66.7313   93.6132   13.7151 C.2     1  UNL1       -0.0062
      6 C          65.7560   93.5170   12.5794 C.2     1  UNL1       -0.0322
      7 C          64.8782   92.3082   12.4450 C.3     1  UNL1        0.0500
      8 C          64.9756   91.1956   13.4463 C.2     1  UNL1       -0.0029
      9 C          64.2457   89.8912   13.5714 C.2     1  UNL1       -0.0057
     10 C          64.6808   84.0056   14.3309 C.3     1  UNL1        0.0310
     11 C          64.2746   85.2531   15.0582 C.ar    1  UNL1       -0.0221
     12 C          63.4179   85.1602   16.2859 C.ar    1  UNL1       -0.0085
     13 C          63.0118   86.4077   17.0131 C.ar    1  UNL1       -0.0221
     14 C          62.1550   86.3149   18.2409 C.3     1  UNL1        0.0310
     15 C          63.4624   87.7480   16.5126 C.ar    1  UNL1       -0.0028
     16 C          64.3191   87.8409   15.2849 C.ar    1  UNL1        0.0167
     17 C          64.7252   86.5934   14.5577 C.ar    1  UNL1       -0.0028
     18 C          65.6587   94.6297   11.5781 C.3     1  UNL1        0.0845
     19 C          64.9700   93.7055   10.6181 C.3     1  UNL1        0.0132
     20 C          66.3473   95.5539   12.5381 C.3     1  UNL1        0.0132
     21 C          65.5613   95.7423   10.5768 C.2     1  UNL1        0.2281
     22 O          64.5781   96.8557   10.7861 O.2     1  UNL1       -0.2746
     23 N          67.3406   95.2594    8.6361 N.am    1  UNL1       -0.2809
     24 C          67.2526   96.2655    7.7307 C.3     1  UNL1        0.0933
     25 C          67.2355   96.8535    7.1545 C.3     1  UNL1        0.0200
     26 C          68.2187   95.7401    6.9453 C.3     1  UNL1        0.0034
     27 C          68.3161   94.6275    7.9465 C.3     1  UNL1        0.0199
     28 C          67.4303   94.6282    9.1571 C.3     1  UNL1        0.0753
     29 C          66.4471   95.7416    9.3663 C.3     1  UNL1        0.0199
     30 C          66.3497   96.8542    8.3650 C.3     1  UNL1        0.0034
     31 C          63.1789   89.3855   12.6460 C.3     1  UNL1        0.0393
     32 C          63.2417   87.9798   12.1260 C.3     1  UNL1        0.0062
     33 C          62.0494   90.2853   12.2406 C.3     1  UNL1        0.0730
     34 N          60.6701   89.7236   12.0615 N.3     1  UNL1       -0.2969
     35 H          60.0158   90.4578   12.3321 H       1  UNL1        0.1233
     36 C          60.2314   89.2271   10.7158 C.3     1  UNL1        0.0733
     37 C          59.8648   87.7843   10.5317 C.3     1  UNL1        0.0435
     38 C          60.9234   86.7798   10.1848 C.ar    1  UNL1       -0.0192
     39 C          61.6231   86.8545    8.8602 C.ar    1  UNL1       -0.0026
     40 C          62.6817   85.8500    8.5133 C.ar    1  UNL1        0.0210
     41 C          63.0406   84.7707    9.4912 C.ar    1  UNL1        0.1088
     42 N          64.0352   83.6496    9.4283 N.ar    1  UNL1       -0.1901
     43 S          63.9502   82.8820   10.7142 S.2     1  UNL1        0.1165
     44 N          62.9031   83.5286   11.5718 N.ar    1  UNL1       -0.1901
     45 C          62.3410   84.6960   10.8159 C.ar    1  UNL1        0.1085
     46 C          61.2824   85.7005   11.1627 C.ar    1  UNL1        0.0171
@<TRIPOS>BOND
     1    10    11    1
     2    11    12   ar
     3    12    13   ar
     4    13    14    1
     5    13    15   ar
     6    15    16   ar
     7    16     1    1
     8     1     2    2
     9     2     3    1
    10     3     4    2
    11     4     5    1
    12     5     6    2
    13     6    18    1
    14    18    19    1
    15    18    20    1
    16    18    21    1
    17    21    22    2
    18    21    23   am
    19    23    24    1
    20    24    25    1
    21    25    26    1
    22    26    27    1
    23    27    28    1
    24    28    29    1
    25    29    30    1
    26     6     7    1
    27     7     8    1
    28     8     9    2
    29     9    31    1
    30    31    32    1
    31    31    33    1
    32    33    34    1
    33    34    36    1
    34    36    37    1
    35    37    38    1
    36    38    39   ar
    37    39    40   ar
    38    40    41   ar
    39    41    42   ar
    40    42    43   ar
    41    43    44   ar
    42    44    45   ar
    43    45    46   ar
    44    16    17   ar
    45    17    11   ar
    46     9     1    1
    47    46    38   ar
    48     8     3    1
    49    45    41   ar
    50    28    23    1
    51    30    25    1
    52    34    35    1
@<TRIPOS>MOLECULE
*****
 46 52 0 0 0
SMALL
GASTEIGER

@<TRIPOS>ATOM
      1 C          61.6582   86.8619   10.7044 C.2     1  UNL1        0.0770
      2 N          60.8571   86.0266    9.7502 N.2     1  UNL1       -0.2460
      3 C          60.3094   86.9329    8.6878 C.2     1  UNL1        0.0773
      4 C          59.4493   86.6677    7.4879 C.2     1  UNL1        0.0182
      5 C          59.0517   87.7981    6.5856 C.2     1  UNL1       -0.0062
      6 C          59.5144   89.1936    6.8832 C.2     1  UNL1       -0.0322
      7 C          60.3745   89.4587    8.0831 C.3     1  UNL1        0.0500
      8 C          60.7720   88.3284    8.9854 C.2     1  UNL1       -0.0029
      9 C          61.6056   88.2845   10.2317 C.2     1  UNL1       -0.0057
     10 C          64.6516   87.7777   14.8518 C.3     1  UNL1        0.0310
     11 C          63.8810   86.8202   13.9918 C.ar    1  UNL1       -0.0221
     12 C          63.8366   85.3632   14.3456 C.ar    1  UNL1       -0.0085
     13 C          63.0660   84.4058   13.4857 C.ar    1  UNL1       -0.0221
     14 C          63.0216   82.9488   13.8395 C.3     1  UNL1        0.0310
     15 C          62.3399   84.9054   12.2720 C.ar    1  UNL1       -0.0028
     16 C          62.3843   86.3623   11.9181 C.ar    1  UNL1        0.0167
     17 C          63.1549   87.3198   12.7781 C.ar    1  UNL1       -0.0028
     18 C          59.1168   90.3240    5.9808 C.3     1  UNL1        0.0845
     19 C          57.7111   89.8016    5.9459 C.3     1  UNL1        0.0132
     20 C          60.5224   90.8464    6.0158 C.3     1  UNL1        0.0132
     21 C          58.7192   91.4543    5.0785 C.2     1  UNL1        0.2281
     22 O          57.3328   92.0222    5.1540 O.2     1  UNL1       -0.2746
     23 N          60.8302   92.0683    3.5512 N.am    1  UNL1       -0.2809
     24 C          60.4706   93.0904    2.7353 C.3     1  UNL1        0.0933
     25 C          60.2988   93.7096    2.2204 C.3     1  UNL1        0.0200
     26 C          61.6852   93.1417    2.1450 C.3     1  UNL1        0.0034
     27 C          62.0828   92.0114    3.0473 C.3     1  UNL1        0.0199
     28 C          61.0941   91.4489    4.0251 C.3     1  UNL1        0.0753
     29 C          59.7078   92.0168    4.1007 C.3     1  UNL1        0.0199
     30 C          59.3102   93.1472    3.1983 C.3     1  UNL1        0.0034
     31 C          62.2700   89.4573   10.8898 C.3     1  UNL1        0.0393
     32 C          61.8149   89.9145   12.2441 C.3     1  UNL1        0.0062
     33 C          63.3893   90.1731   10.1937 C.3     1  UNL1        0.0730
     34 N          63.2364   91.6166    9.8157 N.3     1  UNL1       -0.2969
     35 H          62.2822   91.8846   10.0568 H       1  UNL1        0.1233
     36 C          64.1416   92.6497   10.4184 C.3     1  UNL1        0.0733
     37 C          65.5583   92.2966   10.7623 C.3     1  UNL1        0.0435
     38 C          65.9861   92.2257   12.1983 C.ar    1  UNL1       -0.0192
     39 C          65.0273   91.7372   13.2433 C.ar    1  UNL1       -0.0026
     40 C          65.4550   91.6662   14.6792 C.ar    1  UNL1        0.0210
     41 C          66.8417   92.0838   15.0702 C.ar    1  UNL1        0.1088
     42 N          67.5416   92.1231   16.3963 N.ar    1  UNL1       -0.1901
     43 S          68.9331   92.6360   16.1709 S.2     1  UNL1        0.1165
     44 N          69.0931   92.9136   14.7055 N.ar    1  UNL1       -0.1901
     45 C          67.8005   92.5723   14.0253 C.ar    1  UNL1        0.1085
     46 C          67.3727   92.6433   12.5893 C.ar    1  UNL1        0.0171
@<TRIPOS>BOND
     1    10    11    1
     2    11    12   ar
     3    12    13   ar
     4    13    14    1
     5    13    15   ar
     6    15    16   ar
     7    16     1    1
     8     1     2    2
     9     2     3    1
    10     3     4    2
    11     4     5    1
    12     5     6    2
    13     6    18    1
    14    18    19    1
    15    18    20    1
    16    18    21    1
    17    21    22    2
    18    21    23   am
    19    23    24    1
    20    24    25    1
    21    25    26    1
    22    26    27    1
    23    27    28    1
    24    28    29    1
    25    29    30    1
    26     6     7    1
    27     7     8    1
    28     8     9    2
    29     9    31    1
    30    31    32    1
    31    31    33    1
    32    33    34    1
    33    34    36    1
    34    36    37    1
    35    37    38    1
    36    38    39   ar
    37    39    40   ar
    38    40    41   ar
    39    41    42   ar
    40    42    43   ar
    41    43    44   ar
    42    44    45   ar
    43    45    46   ar
    44    16    17   ar
    45    17    11   ar
    46     9     1    1
    47    46    38   ar
    48     8     3    1
    49    45    41   ar
    50    28    23    1
    51    30    25    1
    52    34    35    1
@<TRIPOS>MOLECULE
*****
 46 52 0 0 0
SMALL
GASTEIGER

@<TRIPOS>ATOM
      1 C          59.9908   92.7897    2.5394 C.2     1  UNL1        0.0770
      2 N          58.6063   92.6238    3.0920 N.2     1  UNL1       -0.2460
      3 C          58.6855   91.7006    4.2717 C.2     1  UNL1        0.0773
      4 C          57.6375   91.1762    5.2079 C.2     1  UNL1        0.0182
      5 C          58.0231   90.2471    6.3206 C.2     1  UNL1       -0.0062
      6 C          59.4567   89.8425    6.4971 C.2     1  UNL1       -0.0322
      7 C          60.5047   90.3670    5.5608 C.3     1  UNL1        0.0500
      8 C          60.1191   91.2960    4.4481 C.2     1  UNL1       -0.0029
      9 C          60.9258   91.9691    3.3775 C.2     1  UNL1       -0.0057
     10 C          59.7407   93.7595   -2.5593 C.3     1  UNL1        0.0310
     11 C          60.2483   94.1138   -1.1929 C.ar    1  UNL1       -0.0221
     12 C          61.1382   95.3073   -1.0096 C.ar    1  UNL1       -0.0085
     13 C          61.6457   95.6615    0.3567 C.ar    1  UNL1       -0.0221
     14 C          62.5357   96.8550    0.5401 C.3     1  UNL1        0.0310
     15 C          61.2632   94.8223    1.5397 C.ar    1  UNL1       -0.0028
     16 C          60.3733   93.6289    1.3564 C.ar    1  UNL1        0.0167
     17 C          59.8658   93.2747   -0.0099 C.ar    1  UNL1       -0.0028
     18 C          59.8422   88.9135    7.6099 C.3     1  UNL1        0.0845
     19 C          59.8771   87.7684    6.6417 C.3     1  UNL1        0.0132
     20 C          59.8073   90.0586    8.5781 C.3     1  UNL1        0.0132
     21 C          60.2277   87.9844    8.7226 C.2     1  UNL1        0.2281
     22 O          59.6165   86.6169    8.8037 O.2     1  UNL1       -0.2746
     23 N          62.0158   89.2460   10.2643 N.am    1  UNL1       -0.2809
     24 C          62.3645   88.4059   11.2704 C.3     1  UNL1        0.0933
     25 C          62.6069   87.9318   11.8986 C.3     1  UNL1        0.0200
     26 C          63.2182   89.2993   11.8175 C.3     1  UNL1        0.0034
     27 C          62.8326   90.2283   10.7048 C.3     1  UNL1        0.0199
     28 C          61.8358   89.7900    9.6731 C.3     1  UNL1        0.0753
     29 C          61.2246   88.4227    9.7542 C.3     1  UNL1        0.0199
     30 C          61.6101   87.4935   10.8669 C.3     1  UNL1        0.0034
     31 C          62.4074   91.8436    3.1798 C.3     1  UNL1        0.0393
     32 C          63.0841   90.5228    3.3985 C.3     1  UNL1        0.0062
     33 C          63.2124   93.0388    2.7635 C.3     1  UNL1        0.0730
     34 N          64.5663   92.8528    2.1451 N.3     1  UNL1       -0.2969
     35 H          64.7144   91.8474    2.0575 H       1  UNL1        0.1233
     36 C          64.8671   93.4532    0.8038 C.3     1  UNL1        0.0733
     37 C          63.9570   93.1867   -0.3583 C.3     1  UNL1        0.0435
     38 C          64.1683   93.9071   -1.6570 C.ar    1  UNL1       -0.0192
     39 C          64.7886   95.2727   -1.6649 C.ar    1  UNL1       -0.0026
     40 C          64.9998   95.9931   -2.9635 C.ar    1  UNL1        0.0210
     41 C          64.5908   95.3477   -4.2544 C.ar    1  UNL1        0.1088
     42 N          64.6739   95.8109   -5.6786 N.ar    1  UNL1       -0.1901
     43 S          64.1049   94.7314   -6.5510 S.2     1  UNL1        0.1165
     44 N          63.6702   93.6011   -5.6659 N.ar    1  UNL1       -0.1901
     45 C          63.9705   93.9820   -4.2464 C.ar    1  UNL1        0.1085
     46 C          63.7592   93.2617   -2.9478 C.ar    1  UNL1        0.0171
@<TRIPOS>BOND
     1    10    11    1
     2    11    12   ar
     3    12    13   ar
     4    13    14    1
     5    13    15   ar
     6    15    16   ar
     7    16     1    1
     8     1     2    2
     9     2     3    1
    10     3     4    2
    11     4     5    1
    12     5     6    2
    13     6    18    1
    14    18    19    1
    15    18    20    1
    16    18    21    1
    17    21    22    2
    18    21    23   am
    19    23    24    1
    20    24    25    1
    21    25    26    1
    22    26    27    1
    23    27    28    1
    24    28    29    1
    25    29    30    1
    26     6     7    1
    27     7     8    1
    28     8     9    2
    29     9    31    1
    30    31    32    1
    31    31    33    1
    32    33    34    1
    33    34    36    1
    34    36    37    1
    35    37    38    1
    36    38    39   ar
    37    39    40   ar
    38    40    41   ar
    39    41    42   ar
    40    42    43   ar
    41    43    44   ar
    42    44    45   ar
    43    45    46   ar
    44    16    17   ar
    45    17    11   ar
    46     9     1    1
    47    46    38   ar
    48     8     3    1
    49    45    41   ar
    50    28    23    1
    51    30    25    1
    52    34    35    1
@<TRIPOS>MOLECULE
*****
 46 52 0 0 0
SMALL
GASTEIGER

@<TRIPOS>ATOM
      1 C          60.0290   88.5065    6.9994 C.2     1  UNL1        0.0770
      2 N          60.2025   87.0975    6.5149 N.2     1  UNL1       -0.2460
      3 C          60.8675   86.3109    7.6053 C.2     1  UNL1        0.0773
      4 C          61.2874   84.8736    7.6930 C.2     1  UNL1        0.0182
      5 C          61.9449   84.3591    8.9392 C.2     1  UNL1       -0.0062
      6 C          62.1823   85.2818   10.0977 C.2     1  UNL1       -0.0322
      7 C          61.7624   86.7191   10.0100 C.3     1  UNL1        0.0500
      8 C          61.1050   87.2337    8.7638 C.2     1  UNL1       -0.0029
      9 C          60.5867   88.5906    8.3893 C.2     1  UNL1       -0.0057
     10 C          55.8038   91.0957    5.4361 C.3     1  UNL1        0.0310
     11 C          57.2944   90.9280    5.4476 C.ar    1  UNL1       -0.0221
     12 C          58.1629   91.8873    4.6890 C.ar    1  UNL1       -0.0085
     13 C          59.6534   91.7196    4.7005 C.ar    1  UNL1       -0.0221
     14 C          60.5220   92.6788    3.9419 C.3     1  UNL1        0.0310
     15 C          60.2755   90.5926    5.4707 C.ar    1  UNL1       -0.0028
     16 C          59.4070   89.6334    6.2293 C.ar    1  UNL1        0.0167
     17 C          57.9165   89.8011    6.2177 C.ar    1  UNL1       -0.0028
     18 C          62.8398   84.7672   11.3439 C.3     1  UNL1        0.0845
     19 C          61.9134   85.6022   12.1773 C.3     1  UNL1        0.0132
     20 C          63.7661   83.9323   10.5105 C.3     1  UNL1        0.0132
     21 C          63.4972   84.2527   12.5901 C.2     1  UNL1        0.2281
     22 O          64.3162   85.1764   13.4423 O.2     1  UNL1       -0.2746
     23 N          62.8959   81.6547   12.8238 N.am    1  UNL1       -0.2809
     24 C          63.4903   81.1894   13.9507 C.3     1  UNL1        0.0933
     25 C          63.8315   80.8617   14.6246 C.3     1  UNL1        0.0200
     26 C          63.0125   79.9379   13.7725 C.3     1  UNL1        0.0034
     27 C          62.3551   80.4525   12.5263 C.3     1  UNL1        0.0199
     28 C          62.5167   81.8907   12.1322 C.3     1  UNL1        0.0753
     29 C          63.3356   82.8144   12.9842 C.3     1  UNL1        0.0199
     30 C          63.9930   82.2999   14.2305 C.3     1  UNL1        0.0034
     31 C          60.6204   89.8164    9.2531 C.3     1  UNL1        0.0393
     32 C          59.4195   90.1915   10.0701 C.3     1  UNL1        0.0062
     33 C          61.8548   90.6673    9.3001 C.3     1  UNL1        0.0730
     34 N          62.9261   90.3796   10.3098 N.3     1  UNL1       -0.2969
     35 H          63.6777   91.0480   10.1403 H       1  UNL1        0.1233
     36 C          62.6122   90.4434   11.7752 C.3     1  UNL1        0.0733
     37 C          63.5156   89.7706   12.7658 C.3     1  UNL1        0.0435
     38 C          64.3080   90.5936   13.7378 C.ar    1  UNL1       -0.0192
     39 C          63.8219   90.7649   15.1465 C.ar    1  UNL1       -0.0026
     40 C          64.6142   91.5878   16.1185 C.ar    1  UNL1        0.0210
     41 C          65.8928   92.2395   15.6820 C.ar    1  UNL1        0.1088
     42 N          66.8797   93.1021   16.4113 N.ar    1  UNL1       -0.1901
     43 S          67.9758   93.4639   15.4534 S.2     1  UNL1        0.1165
     44 N          67.6663   92.8249   14.1321 N.ar    1  UNL1       -0.1901
     45 C          66.3789   92.0682   14.2734 C.ar    1  UNL1        0.1085
     46 C          65.5866   91.2452   13.3013 C.ar    1  UNL1        0.0171
@<TRIPOS>BOND
     1    10    11    1
     2    11    12   ar
     3    12    13   ar
     4    13    14    1
     5    13    15   ar
     6    15    16   ar
     7    16     1    1
     8     1     2    2
     9     2     3    1
    10     3     4    2
    11     4     5    1
    12     5     6    2
    13     6    18    1
    14    18    19    1
    15    18    20    1
    16    18    21    1
    17    21    22    2
    18    21    23   am
    19    23    24    1
    20    24    25    1
    21    25    26    1
    22    26    27    1
    23    27    28    1
    24    28    29    1
    25    29    30    1
    26     6     7    1
    27     7     8    1
    28     8     9    2
    29     9    31    1
    30    31    32    1
    31    31    33    1
    32    33    34    1
    33    34    36    1
    34    36    37    1
    35    37    38    1
    36    38    39   ar
    37    39    40   ar
    38    40    41   ar
    39    41    42   ar
    40    42    43   ar
    41    43    44   ar
    42    44    45   ar
    43    45    46   ar
    44    16    17   ar
    45    17    11   ar
    46     9     1    1
    47    46    38   ar
    48     8     3    1
    49    45    41   ar
    50    28    23    1
    51    30    25    1
    52    34    35    1
@<TRIPOS>MOLECULE
*****
 46 52 0 0 0
SMALL
GASTEIGER

@<TRIPOS>ATOM
      1 C          60.0174   88.4271    7.0004 C.2     1  UNL1        0.0770
      2 N          60.2477   87.0400    6.4781 N.2     1  UNL1       -0.2460
      3 C          60.9230   86.2449    7.5560 C.2     1  UNL1        0.0773
      4 C          61.3918   84.8211    7.6089 C.2     1  UNL1        0.0182
      5 C          62.0476   84.2930    8.8502 C.2     1  UNL1       -0.0062
      6 C          62.2346   85.1888   10.0388 C.2     1  UNL1       -0.0322
      7 C          61.7658   86.6127    9.9859 C.3     1  UNL1        0.0500
      8 C          61.1100   87.1407    8.7445 C.2     1  UNL1       -0.0029
      9 C          60.5503   88.4894    8.4011 C.2     1  UNL1       -0.0057
     10 C          60.4071   92.6551    4.0050 C.3     1  UNL1        0.0310
     11 C          59.5629   91.6680    4.7554 C.ar    1  UNL1       -0.0221
     12 C          58.0695   91.8080    4.7586 C.ar    1  UNL1       -0.0085
     13 C          57.2253   90.8210    5.5090 C.ar    1  UNL1       -0.0221
     14 C          55.7318   90.9609    5.5123 C.3     1  UNL1        0.0310
     15 C          57.8746   89.6940    6.2563 C.ar    1  UNL1       -0.0028
     16 C          59.3681   89.5540    6.2531 C.ar    1  UNL1        0.0167
     17 C          60.2122   90.5411    5.5027 C.ar    1  UNL1       -0.0028
     18 C          62.8904   84.6607   11.2802 C.3     1  UNL1        0.0845
     19 C          63.8145   83.8310   10.4390 C.3     1  UNL1        0.0132
     20 C          61.9663   85.4904   12.1214 C.3     1  UNL1        0.0132
     21 C          63.5462   84.1326   12.5215 C.2     1  UNL1        0.2281
     22 O          64.3965   85.0372   13.3635 O.2     1  UNL1       -0.2746
     23 N          62.8812   81.5513   12.7677 N.am    1  UNL1       -0.2809
     24 C          63.4742   81.0738   13.8902 C.3     1  UNL1        0.0933
     25 C          63.8133   80.7391   14.5618 C.3     1  UNL1        0.0200
     26 C          62.9631   79.8345   13.7198 C.3     1  UNL1        0.0034
     27 C          62.3072   80.3626   12.4785 C.3     1  UNL1        0.0199
     28 C          62.5016   81.7953   12.0791 C.3     1  UNL1        0.0753
     29 C          63.3518   82.6999   12.9209 C.3     1  UNL1        0.0199
     30 C          64.0077   82.1718   14.1623 C.3     1  UNL1        0.0034
     31 C          60.5275   89.6895    9.3006 C.3     1  UNL1        0.0393
     32 C          61.4336   90.8523    9.0227 C.3     1  UNL1        0.0062
     33 C          59.5988   89.7271   10.4778 C.3     1  UNL1        0.0730
     34 N          60.0362   89.1619   11.7966 N.3     1  UNL1       -0.2969
     35 H          60.2947   88.1895   11.6290 H       1  UNL1        0.1233
     36 C          61.1764   89.7909   12.5411 C.3     1  UNL1        0.0733
     37 C          62.5901   89.5014   12.1317 C.3     1  UNL1        0.0435
     38 C          63.6537   90.5420   12.3209 C.ar    1  UNL1       -0.0192
     39 C          64.0661   91.4110   11.1699 C.ar    1  UNL1       -0.0026
     40 C          65.1297   92.4515   11.3592 C.ar    1  UNL1        0.0210
     41 C          65.7811   92.6231   12.6994 C.ar    1  UNL1        0.1088
     42 N          66.8502   93.5572   13.1835 N.ar    1  UNL1       -0.1901
     43 S          67.0987   93.2655   14.6338 S.2     1  UNL1        0.1165
     44 N          66.1831   92.1512   15.0459 N.ar    1  UNL1       -0.1901
     45 C          65.3688   91.7541   13.8504 C.ar    1  UNL1        0.1085
     46 C          64.3051   90.7136   13.6611 C.ar    1  UNL1        0.0171
@<TRIPOS>BOND
     1    10    11    1
     2    11    12   ar
     3    12    13   ar
     4    13    14    1
     5    13    15   ar
     6    15    16   ar
     7    16     1    1
     8     1     2    2
     9     2     3    1
    10     3     4    2
    11     4     5    1
    12     5     6    2
    13     6    18    1
    14    18    19    1
    15    18    20    1
    16    18    21    1
    17    21    22    2
    18    21    23   am
    19    23    24    1
    20    24    25    1
    21    25    26    1
    22    26    27    1
    23    27    28    1
    24    28    29    1
    25    29    30    1
    26     6     7    1
    27     7     8    1
    28     8     9    2
    29     9    31    1
    30    31    32    1
    31    31    33    1
    32    33    34    1
    33    34    36    1
    34    36    37    1
    35    37    38    1
    36    38    39   ar
    37    39    40   ar
    38    40    41   ar
    39    41    42   ar
    40    42    43   ar
    41    43    44   ar
    42    44    45   ar
    43    45    46   ar
    44    16    17   ar
    45    17    11   ar
    46     9     1    1
    47    46    38   ar
    48     8     3    1
    49    45    41   ar
    50    28    23    1
    51    30    25    1
    52    34    35    1
@<TRIPOS>MOLECULE
*****
 46 52 0 0 0
SMALL
GASTEIGER

@<TRIPOS>ATOM
      1 C          59.8232   92.4646    2.7750 C.2     1  UNL1        0.0770
      2 N          58.4625   92.2765    3.3778 N.2     1  UNL1       -0.2460
      3 C          58.6127   91.4277    4.6054 C.2     1  UNL1        0.0773
      4 C          57.6137   90.9178    5.6014 C.2     1  UNL1        0.0182
      5 C          58.0682   90.0714    6.7533 C.2     1  UNL1       -0.0062
      6 C          59.5216   89.7349    6.9092 C.2     1  UNL1       -0.0322
      7 C          60.5206   90.2448    5.9133 C.3     1  UNL1        0.0500
      8 C          60.0661   91.0913    4.7614 C.2     1  UNL1       -0.0029
      9 C          60.8142   91.7321    3.6301 C.2     1  UNL1       -0.0057
     10 C          60.0921   92.7733   -2.4050 C.3     1  UNL1        0.0310
     11 C          60.2720   93.4021   -1.0550 C.ar    1  UNL1       -0.0221
     12 C          60.7663   94.8141   -0.9453 C.ar    1  UNL1       -0.0085
     13 C          60.9462   95.4429    0.4046 C.ar    1  UNL1       -0.0221
     14 C          61.4405   96.8549    0.5144 C.3     1  UNL1        0.0310
     15 C          60.6318   94.6597    1.6447 C.ar    1  UNL1       -0.0028
     16 C          60.1375   93.2478    1.5349 C.ar    1  UNL1        0.0167
     17 C          59.9576   92.6190    0.1851 C.ar    1  UNL1       -0.0028
     18 C          59.9760   88.8884    8.0612 C.3     1  UNL1        0.0845
     19 C          59.0901   87.7730    7.5910 C.3     1  UNL1        0.0132
     20 C          60.8619   90.0037    8.5314 C.3     1  UNL1        0.0132
     21 C          60.4304   88.0419    9.2131 C.2     1  UNL1        0.2281
     22 O          60.0134   88.3913   10.6111 O.2     1  UNL1       -0.2746
     23 N          61.9427   86.0627    8.2324 N.am    1  UNL1       -0.2809
     24 C          62.3535   85.2973    9.2740 C.3     1  UNL1        0.0933
     25 C          62.6275   84.8035    9.8733 C.3     1  UNL1        0.0200
     26 C          63.0445   84.4540    8.4754 C.3     1  UNL1        0.0034
     27 C          62.5901   85.3005    7.3235 C.3     1  UNL1        0.0199
     28 C          61.7187   86.4965    7.5694 C.3     1  UNL1        0.0753
     29 C          61.3018   86.8459    8.9672 C.3     1  UNL1        0.0199
     30 C          61.7562   85.9994   10.1192 C.3     1  UNL1        0.0034
     31 C          62.2936   91.6540    3.3953 C.3     1  UNL1        0.0393
     32 C          63.0234   90.3647    3.6303 C.3     1  UNL1        0.0062
     33 C          63.0434   92.8652    2.9255 C.3     1  UNL1        0.0730
     34 N          64.2237   92.7095    2.0130 N.3     1  UNL1       -0.2969
     35 H          63.8683   92.3361    1.1329 H       1  UNL1        0.1233
     36 C          65.0678   93.9007    1.6687 C.3     1  UNL1        0.0733
     37 C          64.4899   95.0187    0.8525 C.3     1  UNL1        0.0435
     38 C          64.5110   94.9423   -0.6454 C.ar    1  UNL1       -0.0192
     39 C          65.0703   96.0803   -1.4466 C.ar    1  UNL1       -0.0026
     40 C          65.0914   96.0040   -2.9445 C.ar    1  UNL1        0.0210
     41 C          64.5530   94.7896   -3.6413 C.ar    1  UNL1        0.1088
     42 N          64.4419   94.4325   -5.0939 N.ar    1  UNL1       -0.1901
     43 S          63.8138   93.0738   -5.1904 S.2     1  UNL1        0.1165
     44 N          63.5368   92.5912   -3.7975 N.ar    1  UNL1       -0.1901
     45 C          63.9937   93.6516   -2.8400 C.ar    1  UNL1        0.1085
     46 C          63.9726   93.7279   -1.3421 C.ar    1  UNL1        0.0171
@<TRIPOS>BOND
     1    10    11    1
     2    11    12   ar
     3    12    13   ar
     4    13    14    1
     5    13    15   ar
     6    15    16   ar
     7    16     1    1
     8     1     2    2
     9     2     3    1
    10     3     4    2
    11     4     5    1
    12     5     6    2
    13     6    18    1
    14    18    19    1
    15    18    20    1
    16    18    21    1
    17    21    22    2
    18    21    23   am
    19    23    24    1
    20    24    25    1
    21    25    26    1
    22    26    27    1
    23    27    28    1
    24    28    29    1
    25    29    30    1
    26     6     7    1
    27     7     8    1
    28     8     9    2
    29     9    31    1
    30    31    32    1
    31    31    33    1
    32    33    34    1
    33    34    36    1
    34    36    37    1
    35    37    38    1
    36    38    39   ar
    37    39    40   ar
    38    40    41   ar
    39    41    42   ar
    40    42    43   ar
    41    43    44   ar
    42    44    45   ar
    43    45    46   ar
    44    16    17   ar
    45    17    11   ar
    46     9     1    1
    47    46    38   ar
    48     8     3    1
    49    45    41   ar
    50    28    23    1
    51    30    25    1
    52    34    35    1
