@<TRIPOS>MOLECULE
*****
 43 47 0 0 0
SMALL
GASTEIGER

@<TRIPOS>ATOM
      1 C          62.8527   86.6552   11.6769 C.3     1  UNL1        0.1695
      2 C          62.9765   85.5792   12.7147 C.3     1  UNL1        0.1271
      3 N          63.1011   85.7248   14.2024 N.am    1  UNL1       -0.2553
      4 C          63.2084   84.4435   14.9750 C.2     1  UNL1        0.2291
      5 O          63.3370   84.4771   16.4691 O.2     1  UNL1       -0.2745
      6 C          63.1326   86.9822   15.0198 C.ar    1  UNL1        0.0676
      7 C          63.2691   86.6814   16.4830 C.ar    1  UNL1        0.0162
      8 C          63.3203   87.8030   17.4776 C.ar    1  UNL1        0.0014
      9 C          63.2350   89.2254   17.0091 C.ar    1  UNL1        0.0014
     10 C          63.0985   89.5262   15.5459 C.ar    1  UNL1        0.0162
     11 C          63.0474   88.4046   14.5513 C.ar    1  UNL1        0.0679
     12 N          62.9095   88.9209   13.1497 N.am    1  UNL1       -0.2517
     13 C          62.8228   88.1424   11.8704 C.2     1  UNL1        0.2493
     14 O          62.6886   88.9590   10.6194 O.2     1  UNL1       -0.2727
     15 C          63.1870   83.1286   14.2534 C.3     1  UNL1        0.0820
     16 C          64.3056   82.7658   13.3224 C.3     1  UNL1        0.0412
     17 C          64.2842   81.4509   12.6008 C.3     1  UNL1        0.1427
     18 O          63.1441   80.4989   12.8104 O.3     1  UNL1       -0.3538
     19 C          62.0255   80.8618   13.7414 C.3     1  UNL1        0.1427
     20 C          62.0469   82.1766   14.4630 C.3     1  UNL1        0.0412
     21 C          61.4128   86.1799    9.5672 C.2     1  UNL1        0.2371
     22 O          60.1896   86.6525   10.2955 O.2     1  UNL1       -0.2737
     23 N          62.7443   86.1813   10.2579 N.am    1  UNL1       -0.2959
     24 H          63.5471   85.8711    9.7798 H       1  UNL1        0.1499
     25 C          61.3045   85.7060    8.1481 C.3     1  UNL1        0.1316
     26 C          62.5183   85.1864    7.4362 C.3     1  UNL1        0.0270
     27 C          59.1635   87.0082    7.4624 C.3     1  UNL1        0.0862
     28 N          59.9824   85.7517    7.4410 N.3     1  UNL1       -0.2902
     29 H          60.1651   85.5359    6.4610 H       1  UNL1        0.1237
     30 C          62.8504   90.4131   13.0087 C.3     1  UNL1        0.1278
     31 C          63.9860   91.1511   12.3637 C.ar    1  UNL1        0.0320
     32 C          63.9002   91.5443   10.9187 C.ar    1  UNL1        0.1363
     33 C          65.0357   92.2823   10.2736 C.ar    1  UNL1        0.0366
     34 C          66.2569   92.6270   11.0736 C.ar    1  UNL1        0.0031
     35 C          66.3426   92.2337   12.5186 C.ar    1  UNL1        0.0004
     36 C          67.5638   92.5783   13.3185 C.ar    1  UNL1        0.0067
     37 C          67.6495   92.1850   14.7635 C.ar    1  UNL1        0.0346
     38 BR         68.8707   92.5296   15.5634 Br      1  UNL1       -0.0490
     39 C          66.5140   91.4470   15.4085 C.ar    1  UNL1        0.0067
     40 C          65.2929   91.1024   14.6085 C.ar    1  UNL1        0.0003
     41 C          65.2071   91.4957   13.1637 C.ar    1  UNL1        0.0006
     42 O          62.6790   91.1997   10.1187 O.3     1  UNL1       -0.4717
     43 C          61.2209   91.0709   10.4461 C.3     1  UNL1        0.2525
@<TRIPOS>BOND
     1    27    28    1
     2    28    25    1
     3    25    26    1
     4    25    21    1
     5    21    22    2
     6    21    23   am
     7     1    23    1
     8     1     2    1
     9     2     3    1
    10     3     4   am
    11     4     5    2
    12     4    15    1
    13    15    16    1
    14    16    17    1
    15    17    18    1
    16    18    19    1
    17    19    20    1
    18     3     6    1
    19     6     7   ar
    20     7     8   ar
    21     8     9   ar
    22     9    10   ar
    23    10    11   ar
    24    11    12    1
    25    12    30    1
    26    30    31    1
    27    31    32   ar
    28    32    42    1
    29    42    43    1
    30    32    33   ar
    31    33    34   ar
    32    34    35   ar
    33    35    36   ar
    34    36    37   ar
    35    37    38    1
    36    37    39   ar
    37    39    40   ar
    38    40    41   ar
    39    12    13   am
    40    13    14    2
    41    13     1    1
    42    20    15    1
    43    11     6   ar
    44    41    31   ar
    45    41    35   ar
    46    28    29    1
    47    23    24    1
@<TRIPOS>MOLECULE
*****
 43 47 0 0 0
SMALL
GASTEIGER

@<TRIPOS>ATOM
      1 C          61.7889   86.1104   10.9411 C.3     1  UNL1        0.1695
      2 C          62.5038   84.9374   11.5437 C.3     1  UNL1        0.1271
      3 N          63.4175   84.9094   12.7330 N.am    1  UNL1       -0.2553
      4 C          63.9813   83.5657   13.0890 C.2     1  UNL1        0.2291
      5 O          64.9063   83.4272   14.2617 O.2     1  UNL1       -0.2745
      6 C          63.8420   86.0473   13.6134 C.ar    1  UNL1        0.0676
      7 C          64.7698   85.5848   14.6974 C.ar    1  UNL1        0.0162
      8 C          65.3132   86.5694   15.6900 C.ar    1  UNL1        0.0014
      9 C          64.9288   88.0164   15.5985 C.ar    1  UNL1        0.0014
     10 C          64.0010   88.4789   14.5145 C.ar    1  UNL1        0.0162
     11 C          63.4576   87.4943   13.5219 C.ar    1  UNL1        0.0679
     12 N          62.5537   88.1608   12.5274 N.am    1  UNL1       -0.2517
     13 C          61.8111   87.5449   11.3788 C.2     1  UNL1        0.2493
     14 O          60.9810   88.4883   10.5598 O.2     1  UNL1       -0.2727
     15 C          63.6200   82.3605   12.2723 C.3     1  UNL1        0.0820
     16 C          63.9242   82.3310   10.8038 C.3     1  UNL1        0.0412
     17 C          63.5630   81.1258    9.9871 C.3     1  UNL1        0.1427
     18 O          62.8976   79.9501   10.6390 O.3     1  UNL1       -0.3538
     19 C          62.5935   79.9796   12.1074 C.3     1  UNL1        0.1427
     20 C          62.9547   81.1847   12.9242 C.3     1  UNL1        0.0412
     21 C          61.5781   85.6263    8.3972 C.2     1  UNL1        0.2371
     22 O          63.0664   85.7451    8.2513 O.2     1  UNL1       -0.2737
     23 N          60.9395   85.8089    9.7421 N.am    1  UNL1       -0.2959
     24 H          59.9628   85.7309    9.8378 H       1  UNL1        0.1499
     25 C          60.7287   85.3248    7.1982 C.3     1  UNL1        0.1316
     26 C          61.2840   84.5024    6.0733 C.3     1  UNL1        0.0270
     27 C          59.0219   87.2515    7.5512 C.3     1  UNL1        0.0862
     28 N          59.3240   85.8457    7.1241 N.3     1  UNL1       -0.2902
     29 H          59.0308   85.7642    6.1506 H       1  UNL1        0.1237
     30 C          62.3680   89.6386   12.7050 C.3     1  UNL1        0.1278
     31 C          63.3307   90.5973   12.0692 C.ar    1  UNL1        0.0320
     32 C          63.2537   90.8711   10.5964 C.ar    1  UNL1        0.1363
     33 C          64.2163   91.8299    9.9605 C.ar    1  UNL1        0.0366
     34 C          65.2558   92.5147   10.7975 C.ar    1  UNL1        0.0031
     35 C          65.3327   92.2409   12.2703 C.ar    1  UNL1        0.0004
     36 C          66.3722   92.9257   13.1072 C.ar    1  UNL1        0.0067
     37 C          66.4490   92.6518   14.5800 C.ar    1  UNL1        0.0346
     38 BR         67.4885   93.3367   15.4169 Br      1  UNL1       -0.0490
     39 C          65.4864   91.6931   15.2159 C.ar    1  UNL1        0.0067
     40 C          64.4470   91.0083   14.3789 C.ar    1  UNL1        0.0003
     41 C          64.3701   91.2821   12.9062 C.ar    1  UNL1        0.0006
     42 O          62.2143   90.1863    9.7594 O.3     1  UNL1       -0.4717
     43 C          60.7722   90.4649    9.4548 C.3     1  UNL1        0.2525
@<TRIPOS>BOND
     1    27    28    1
     2    28    25    1
     3    25    26    1
     4    25    21    1
     5    21    22    2
     6    21    23   am
     7     1    23    1
     8     1     2    1
     9     2     3    1
    10     3     4   am
    11     4     5    2
    12     4    15    1
    13    15    16    1
    14    16    17    1
    15    17    18    1
    16    18    19    1
    17    19    20    1
    18     3     6    1
    19     6     7   ar
    20     7     8   ar
    21     8     9   ar
    22     9    10   ar
    23    10    11   ar
    24    11    12    1
    25    12    30    1
    26    30    31    1
    27    31    32   ar
    28    32    42    1
    29    42    43    1
    30    32    33   ar
    31    33    34   ar
    32    34    35   ar
    33    35    36   ar
    34    36    37   ar
    35    37    38    1
    36    37    39   ar
    37    39    40   ar
    38    40    41   ar
    39    12    13   am
    40    13    14    2
    41    13     1    1
    42    20    15    1
    43    11     6   ar
    44    41    31   ar
    45    41    35   ar
    46    28    29    1
    47    23    24    1
@<TRIPOS>MOLECULE
*****
 43 47 0 0 0
SMALL
GASTEIGER

@<TRIPOS>ATOM
      1 C          61.4809   89.1286    9.5255 C.3     1  UNL1        0.1695
      2 C          61.7900   87.6860    9.2542 C.3     1  UNL1        0.1271
      3 N          62.3998   86.6710   10.1750 N.am    1  UNL1       -0.2553
      4 C          62.5824   85.2976    9.6003 C.2     1  UNL1        0.2291
      5 O          63.1837   84.2079   10.4377 O.2     1  UNL1       -0.2745
      6 C          62.8511   86.8478   11.5946 C.ar    1  UNL1        0.0676
      7 C          63.4070   85.5726   12.1557 C.ar    1  UNL1        0.0162
      8 C          63.9159   85.5329   13.5661 C.ar    1  UNL1        0.0014
      9 C          63.8689   86.7684   14.4155 C.ar    1  UNL1        0.0014
     10 C          63.3131   88.0436   13.8543 C.ar    1  UNL1        0.0162
     11 C          62.8042   88.0833   12.4439 C.ar    1  UNL1        0.0679
     12 N          62.2942   89.4471   12.0834 N.am    1  UNL1       -0.2517
     13 C          61.7053   89.9124   10.7847 C.2     1  UNL1        0.2493
     14 O          61.2853   91.3516   10.7389 O.2     1  UNL1       -0.2727
     15 C          62.1637   85.0137    8.1881 C.3     1  UNL1        0.0820
     16 C          60.7221   85.1400    7.7935 C.3     1  UNL1        0.0412
     17 C          60.3034   84.8562    6.3814 C.3     1  UNL1        0.1427
     18 O          61.3263   84.4460    5.3639 O.3     1  UNL1       -0.3538
     19 C          62.7679   84.3196    5.7585 C.3     1  UNL1        0.1427
     20 C          63.1866   84.6035    7.1706 C.3     1  UNL1        0.0412
     21 C          59.7814   89.2579    7.5648 C.2     1  UNL1        0.2371
     22 O          59.3113   87.8689    7.8806 O.2     1  UNL1       -0.2737
     23 N          60.8662   89.8877    8.3872 N.am    1  UNL1       -0.2959
     24 H          61.1747   90.7993    8.1799 H       1  UNL1        0.1499
     25 C          59.1666   90.0170    6.4264 C.3     1  UNL1        0.1316
     26 C          60.0440   90.7164    5.4307 C.3     1  UNL1        0.0270
     27 C          57.0567   90.9378    5.2223 C.3     1  UNL1        0.0862
     28 N          57.6747   90.0769    6.2838 N.3     1  UNL1       -0.2902
     29 H          57.3569   89.1232    6.1114 H       1  UNL1        0.1237
     30 C          62.3852   90.4827   13.1647 C.3     1  UNL1        0.1278
     31 C          63.7268   90.9750   13.6209 C.ar    1  UNL1        0.0320
     32 C          64.1035   90.8905   15.0703 C.ar    1  UNL1        0.1363
     33 C          65.4450   91.3827   15.5265 C.ar    1  UNL1        0.0366
     34 C          66.4097   91.9595   14.5332 C.ar    1  UNL1        0.0031
     35 C          66.0330   92.0440   13.0837 C.ar    1  UNL1        0.0004
     36 C          66.9977   92.6208   12.0904 C.ar    1  UNL1        0.0067
     37 C          66.6209   92.7053   10.6410 C.ar    1  UNL1        0.0346
     38 BR         67.5856   93.2821    9.6477 Br      1  UNL1       -0.0490
     39 C          65.2794   92.2130   10.1848 C.ar    1  UNL1        0.0067
     40 C          64.3147   91.6363   11.1782 C.ar    1  UNL1        0.0003
     41 C          64.6915   91.5518   12.6275 C.ar    1  UNL1        0.0006
     42 O          63.1388   90.3137   16.0636 O.3     1  UNL1       -0.4717
     43 C          63.1736   89.1293   16.9834 C.3     1  UNL1        0.2525
@<TRIPOS>BOND
     1    27    28    1
     2    28    25    1
     3    25    26    1
     4    25    21    1
     5    21    22    2
     6    21    23   am
     7     1    23    1
     8     1     2    1
     9     2     3    1
    10     3     4   am
    11     4     5    2
    12     4    15    1
    13    15    16    1
    14    16    17    1
    15    17    18    1
    16    18    19    1
    17    19    20    1
    18     3     6    1
    19     6     7   ar
    20     7     8   ar
    21     8     9   ar
    22     9    10   ar
    23    10    11   ar
    24    11    12    1
    25    12    30    1
    26    30    31    1
    27    31    32   ar
    28    32    42    1
    29    42    43    1
    30    32    33   ar
    31    33    34   ar
    32    34    35   ar
    33    35    36   ar
    34    36    37   ar
    35    37    38    1
    36    37    39   ar
    37    39    40   ar
    38    40    41   ar
    39    12    13   am
    40    13    14    2
    41    13     1    1
    42    20    15    1
    43    11     6   ar
    44    41    31   ar
    45    41    35   ar
    46    28    29    1
    47    23    24    1
@<TRIPOS>MOLECULE
*****
 43 47 0 0 0
SMALL
GASTEIGER

@<TRIPOS>ATOM
      1 C          63.0137   86.0294   12.2256 C.3     1  UNL1        0.1695
      2 C          62.8793   84.8611   13.1568 C.3     1  UNL1        0.1271
      3 N          62.8634   84.8578   14.6567 N.am    1  UNL1       -0.2553
      4 C          62.7132   83.5125   15.3030 C.2     1  UNL1        0.2291
      5 O          62.6854   83.3976   16.7984 O.2     1  UNL1       -0.2745
      6 C          62.9779   86.0217   15.5959 C.ar    1  UNL1        0.0676
      7 C          62.9158   85.5789   17.0277 C.ar    1  UNL1        0.0162
      8 C          63.0123   86.5909   18.1306 C.ar    1  UNL1        0.0014
      9 C          63.1710   88.0457   17.8018 C.ar    1  UNL1        0.0014
     10 C          63.2331   88.4886   16.3700 C.ar    1  UNL1        0.0162
     11 C          63.1366   87.4766   15.2671 C.ar    1  UNL1        0.0679
     12 N          63.2199   88.1268   13.9179 N.am    1  UNL1       -0.2517
     13 C          63.1653   87.4828   12.5643 C.2     1  UNL1        0.2493
     14 O          63.2769   88.4154   11.3948 O.2     1  UNL1       -0.2727
     15 C          62.5907   82.2820   14.4538 C.3     1  UNL1        0.0820
     16 C          61.3154   81.4923   14.4573 C.3     1  UNL1        0.0412
     17 C          61.1929   80.2618   13.6082 C.3     1  UNL1        0.1427
     18 O          62.3457   79.8211   12.7557 O.3     1  UNL1       -0.3538
     19 C          63.6209   80.6108   12.7522 C.3     1  UNL1        0.1427
     20 C          63.7434   81.8412   13.6013 C.3     1  UNL1        0.0412
     21 C          61.7771   86.0088    9.9408 C.2     1  UNL1        0.2371
     22 O          60.5802   86.6455   10.5829 O.2     1  UNL1       -0.2737
     23 N          62.9938   85.7008   10.7622 N.am    1  UNL1       -0.2959
     24 H          63.7793   85.2829   10.3408 H       1  UNL1        0.1499
     25 C          61.7572   85.6802    8.4774 C.3     1  UNL1        0.1316
     26 C          60.5527   86.0173    7.6493 C.3     1  UNL1        0.0270
     27 C          62.8471   84.4967    6.4374 C.3     1  UNL1        0.0862
     28 N          62.9418   85.0146    7.8420 N.3     1  UNL1       -0.2902
     29 H          63.7030   85.6934    7.8549 H       1  UNL1        0.1237
     30 C          63.3791   89.6183   13.9230 C.3     1  UNL1        0.1278
     31 C          63.1994   90.3962   12.6530 C.ar    1  UNL1        0.0320
     32 C          61.8851   90.3599   11.9310 C.ar    1  UNL1        0.1363
     33 C          61.7053   91.1377   10.6611 C.ar    1  UNL1        0.0366
     34 C          62.8398   91.9517   10.1132 C.ar    1  UNL1        0.0031
     35 C          64.1542   91.9880   10.8352 C.ar    1  UNL1        0.0004
     36 C          65.2887   92.8020   10.2873 C.ar    1  UNL1        0.0067
     37 C          66.6030   92.8381   11.0093 C.ar    1  UNL1        0.0346
     38 BR         67.7375   93.6521   10.4614 Br      1  UNL1       -0.0490
     39 C          66.7828   92.0603   12.2793 C.ar    1  UNL1        0.0067
     40 C          65.6482   91.2464   12.8271 C.ar    1  UNL1        0.0003
     41 C          64.3339   91.2102   12.1052 C.ar    1  UNL1        0.0006
     42 O          60.7505   89.5460   12.4789 O.3     1  UNL1       -0.4717
     43 C          59.3032   89.3972   12.1139 C.3     1  UNL1        0.2525
@<TRIPOS>BOND
     1    27    28    1
     2    28    25    1
     3    25    26    1
     4    25    21    1
     5    21    22    2
     6    21    23   am
     7     1    23    1
     8     1     2    1
     9     2     3    1
    10     3     4   am
    11     4     5    2
    12     4    15    1
    13    15    16    1
    14    16    17    1
    15    17    18    1
    16    18    19    1
    17    19    20    1
    18     3     6    1
    19     6     7   ar
    20     7     8   ar
    21     8     9   ar
    22     9    10   ar
    23    10    11   ar
    24    11    12    1
    25    12    30    1
    26    30    31    1
    27    31    32   ar
    28    32    42    1
    29    42    43    1
    30    32    33   ar
    31    33    34   ar
    32    34    35   ar
    33    35    36   ar
    34    36    37   ar
    35    37    38    1
    36    37    39   ar
    37    39    40   ar
    38    40    41   ar
    39    12    13   am
    40    13    14    2
    41    13     1    1
    42    20    15    1
    43    11     6   ar
    44    41    31   ar
    45    41    35   ar
    46    28    29    1
    47    23    24    1
