@<TRIPOS>MOLECULE
*****
 30 33 0 0 0
SMALL
GASTEIGER

@<TRIPOS>ATOM
      1 N          65.8317   93.1959   11.9127 N.ar    1  UNL1       -0.3306
      2 C          64.7523   92.1946   11.6257 C.ar    1  UNL1        0.0332
      3 C          64.4593   91.4521   12.8957 C.ar    1  UNL1       -0.0077
      4 C          65.3577   91.9944   13.9675 C.ar    1  UNL1        0.0129
      5 C          65.5130   91.6460   15.4182 C.ar    1  UNL1        0.0012
      6 C          66.5165   92.3755   16.2614 C.ar    1  UNL1        0.0001
      7 C          67.3646   93.4532   15.6538 C.ar    1  UNL1        0.0015
      8 C          67.2093   93.8015   14.2032 C.ar    1  UNL1        0.0172
      9 C          66.2059   93.0721   13.3600 C.ar    1  UNL1        0.0593
     10 C          63.4124   90.3780   12.9120 C.3     1  UNL1        0.0449
     11 C          62.6584   90.0465   11.6583 C.3     1  UNL1        0.0803
     12 C          62.9513   90.7891   10.3884 C.3     1  UNL1        0.0240
     13 C          63.9982   91.8632   10.3721 C.3     1  UNL1        0.0449
     14 N          61.6114   88.9724   11.6747 N.3     1  UNL1       -0.1804
     15 H          60.7079   89.4427   11.7297 H       1  UNL1        0.1488
     16 S          61.5223   87.9947   10.5406 S.O2    1  UNL1        0.0602
     17 O          60.3796   88.7731    9.9591 O.2     1  UNL1       -0.1530
     18 O          62.6651   87.2163   11.1221 O.2     1  UNL1       -0.1530
     19 C          61.4333   87.0169    9.4065 C.ar    1  UNL1        0.1221
     20 C          62.6254   86.1839    9.0392 C.ar    1  UNL1        0.0222
     21 C          62.5365   85.2062    7.9052 C.ar    1  UNL1        0.0310
     22 C          61.2554   85.0614    7.1385 C.ar    1  UNL1        0.1402
     23 F          61.1664   84.0837    6.0044 F       1  UNL1       -0.2042
     24 C          60.0632   85.8944    7.5058 C.ar    1  UNL1        0.0310
     25 C          60.1522   86.8722    8.6398 C.ar    1  UNL1        0.0222
     26 C          66.4316   94.1529   10.9257 C.3     1  UNL1        0.1116
     27 C          66.9930   93.6422    9.6319 C.3     1  UNL1        0.0661
     28 O          68.5917   92.0677   10.9415 O.co2   1  UNL1       -0.5491
     29 C          68.1121   92.6435    9.6421 C.2     1  UNL1        0.0523
     30 O          68.7517   92.2205    8.3529 O.co2   1  UNL1       -0.5491
@<TRIPOS>UNITY_ATOM_ATTR
28 1
charge -1
@<TRIPOS>BOND
     1    28    29   ar
     2    29    30   ar
     3    29    27    1
     4    27    26    1
     5    26     1    1
     6     1     2   ar
     7     2     3   ar
     8     3     4   ar
     9     4     5   ar
    10     5     6   ar
    11     6     7   ar
    12     7     8   ar
    13     8     9   ar
    14     3    10    1
    15    10    11    1
    16    11    14    1
    17    14    16    1
    18    16    17    2
    19    16    18    2
    20    16    19    1
    21    19    20   ar
    22    20    21   ar
    23    21    22   ar
    24    22    23    1
    25    22    24   ar
    26    24    25   ar
    27    11    12    1
    28    12    13    1
    29     9     1   ar
    30    25    19   ar
    31    13     2    1
    32     9     4   ar
    33    14    15    1
@<TRIPOS>MOLECULE
*****
 30 33 0 0 0
SMALL
GASTEIGER

@<TRIPOS>ATOM
      1 N          61.7907   86.4305   10.5353 N.ar    1  UNL1       -0.3306
      2 C          62.3416   87.6382   11.2338 C.ar    1  UNL1        0.0332
      3 C          61.7865   88.8573   10.5589 C.ar    1  UNL1       -0.0077
      4 C          60.8926   88.4031    9.4433 C.ar    1  UNL1        0.0129
      5 C          60.0766   89.1615    8.4388 C.ar    1  UNL1        0.0012
      6 C          59.2632   88.4200    7.4198 C.ar    1  UNL1        0.0001
      7 C          59.2658   86.9201    7.4052 C.ar    1  UNL1        0.0015
      8 C          60.0818   86.1617    8.4097 C.ar    1  UNL1        0.0172
      9 C          60.8952   86.9032    9.4287 C.ar    1  UNL1        0.0593
     10 C          62.1668   90.2236   11.0474 C.3     1  UNL1        0.0449
     11 C          63.1021   90.3707   12.2108 C.3     1  UNL1        0.0803
     12 C          63.6572   89.1516   12.8857 C.3     1  UNL1        0.0240
     13 C          63.2769   87.7853   12.3972 C.3     1  UNL1        0.0449
     14 N          63.4824   91.7371   12.6993 N.3     1  UNL1       -0.1804
     15 H          62.7203   92.0592   13.2958 H       1  UNL1        0.1488
     16 S          64.7512   91.9296   13.4759 S.O2    1  UNL1        0.0602
     17 O          65.4898   92.2080   12.2004 O.2     1  UNL1       -0.1530
     18 O          64.0127   91.6512   14.7514 O.2     1  UNL1       -0.1530
     19 C          66.0200   92.1221   14.2525 C.ar    1  UNL1        0.1221
     20 C          67.3467   91.9017   13.5883 C.ar    1  UNL1        0.0222
     21 C          68.6154   92.0942   14.3649 C.ar    1  UNL1        0.0310
     22 C          68.5575   92.5070   15.8058 C.ar    1  UNL1        0.1402
     23 F          69.8263   92.6995   16.5825 F       1  UNL1       -0.2042
     24 C          67.2308   92.7274   16.4702 C.ar    1  UNL1        0.0310
     25 C          65.9620   92.5349   15.6935 C.ar    1  UNL1        0.0222
     26 C          62.0838   85.0009   10.8824 C.3     1  UNL1        0.1116
     27 C          63.2061   84.2780   10.1986 C.3     1  UNL1        0.0661
     28 O          64.3430   83.6572   12.4507 O.co2   1  UNL1       -0.5491
     29 C          64.1207   83.3918   10.9912 C.2     1  UNL1        0.0523
     30 O          64.8130   82.2403   10.3244 O.co2   1  UNL1       -0.5491
@<TRIPOS>UNITY_ATOM_ATTR
28 1
charge -1
@<TRIPOS>BOND
     1    28    29   ar
     2    29    30   ar
     3    29    27    1
     4    27    26    1
     5    26     1    1
     6     1     2   ar
     7     2     3   ar
     8     3     4   ar
     9     4     5   ar
    10     5     6   ar
    11     6     7   ar
    12     7     8   ar
    13     8     9   ar
    14     3    10    1
    15    10    11    1
    16    11    14    1
    17    14    16    1
    18    16    17    2
    19    16    18    2
    20    16    19    1
    21    19    20   ar
    22    20    21   ar
    23    21    22   ar
    24    22    23    1
    25    22    24   ar
    26    24    25   ar
    27    11    12    1
    28    12    13    1
    29     9     1   ar
    30    25    19   ar
    31    13     2    1
    32     9     4   ar
    33    14    15    1
@<TRIPOS>MOLECULE
*****
 30 33 0 0 0
SMALL
GASTEIGER

@<TRIPOS>ATOM
      1 N          62.3092   85.9738   10.9328 N.ar    1  UNL1       -0.3306
      2 C          62.4915   87.4441   11.1669 C.ar    1  UNL1        0.0332
      3 C          63.1981   87.6205   12.4782 C.ar    1  UNL1       -0.0077
      4 C          63.4525   86.2592   13.0546 C.ar    1  UNL1        0.0129
      5 C          64.1134   85.8149   14.3257 C.ar    1  UNL1        0.0012
      6 C          64.2249   84.3529   14.6416 C.ar    1  UNL1        0.0001
      7 C          63.6755   83.3351   13.6865 C.ar    1  UNL1        0.0015
      8 C          63.0146   83.7794   12.4154 C.ar    1  UNL1        0.0172
      9 C          62.9031   85.2415   12.0994 C.ar    1  UNL1        0.0593
     10 C          63.5186   88.9980   12.9781 C.3     1  UNL1        0.0449
     11 C          63.1325   90.1990   12.1666 C.3     1  UNL1        0.0803
     12 C          62.4259   90.0226   10.8553 C.3     1  UNL1        0.0240
     13 C          62.1054   88.6452   10.3554 C.3     1  UNL1        0.0449
     14 N          63.4531   91.5765   12.6665 N.3     1  UNL1       -0.1804
     15 H          62.6794   91.8589   13.2682 H       1  UNL1        0.1488
     16 S          64.7146   91.8184   13.4412 S.O2    1  UNL1        0.0602
     17 O          65.4659   92.0120   12.1574 O.2     1  UNL1       -0.1530
     18 O          63.9633   91.6249   14.7249 O.2     1  UNL1       -0.1530
     19 C          65.9761   92.0604   14.2159 C.ar    1  UNL1        0.1221
     20 C          67.3085   91.9291   13.5395 C.ar    1  UNL1        0.0222
     21 C          68.5699   92.1710   14.3142 C.ar    1  UNL1        0.0310
     22 C          68.4990   92.5442   15.7653 C.ar    1  UNL1        0.1402
     23 F          69.7605   92.7861   16.5400 F       1  UNL1       -0.2042
     24 C          67.1666   92.6755   16.4418 C.ar    1  UNL1        0.0310
     25 C          65.9052   92.4336   15.6670 C.ar    1  UNL1        0.0222
     26 C          61.6488   85.3459    9.7412 C.3     1  UNL1        0.1116
     27 C          62.1815   85.6080    8.3638 C.3     1  UNL1        0.0661
     28 O          59.9086   85.4913    7.1106 O.co2   1  UNL1       -0.5491
     29 C          61.3804   85.2064    7.1609 C.2     1  UNL1        0.0523
     30 O          62.0512   84.5198    6.0082 O.co2   1  UNL1       -0.5491
@<TRIPOS>UNITY_ATOM_ATTR
28 1
charge -1
@<TRIPOS>BOND
     1    28    29   ar
     2    29    30   ar
     3    29    27    1
     4    27    26    1
     5    26     1    1
     6     1     2   ar
     7     2     3   ar
     8     3     4   ar
     9     4     5   ar
    10     5     6   ar
    11     6     7   ar
    12     7     8   ar
    13     8     9   ar
    14     3    10    1
    15    10    11    1
    16    11    14    1
    17    14    16    1
    18    16    17    2
    19    16    18    2
    20    16    19    1
    21    19    20   ar
    22    20    21   ar
    23    21    22   ar
    24    22    23    1
    25    22    24   ar
    26    24    25   ar
    27    11    12    1
    28    12    13    1
    29     9     1   ar
    30    25    19   ar
    31    13     2    1
    32     9     4   ar
    33    14    15    1
@<TRIPOS>MOLECULE
*****
 30 33 0 0 0
SMALL
GASTEIGER

@<TRIPOS>ATOM
      1 N          63.0314   86.2327   12.6788 N.ar    1  UNL1       -0.3306
      2 C          63.5550   87.5559   13.1530 C.ar    1  UNL1        0.0332
      3 C          63.1527   88.5989   12.1529 C.ar    1  UNL1       -0.0077
      4 C          62.3805   87.9204   11.0606 C.ar    1  UNL1        0.0129
      5 C          61.7359   88.4452    9.8120 C.ar    1  UNL1        0.0012
      6 C          61.0164   87.5076    8.8884 C.ar    1  UNL1        0.0001
      7 C          60.9414   86.0451    9.2134 C.ar    1  UNL1        0.0015
      8 C          61.5860   85.5203   10.4620 C.ar    1  UNL1        0.0172
      9 C          62.3055   86.4579   11.3856 C.ar    1  UNL1        0.0593
     10 C          63.5416   90.0319   12.3661 C.3     1  UNL1        0.0449
     11 C          64.3327   90.4218   13.5795 C.3     1  UNL1        0.0803
     12 C          64.7350   89.3787   14.5796 C.3     1  UNL1        0.0240
     13 C          64.3462   87.9458   14.3663 C.3     1  UNL1        0.0449
     14 N          64.7215   91.8548   13.7927 N.3     1  UNL1       -0.1804
     15 H          65.3357   91.8753   14.6067 H       1  UNL1        0.1488
     16 S          65.4213   92.6120   12.7031 S.O2    1  UNL1        0.0602
     17 O          66.5123   92.9845   13.6626 O.2     1  UNL1       -0.1530
     18 O          64.3301   92.2394   11.7436 O.2     1  UNL1       -0.1530
     19 C          66.1209   93.3692   11.6135 C.ar    1  UNL1        0.1221
     20 C          66.0940   94.8689   11.6059 C.ar    1  UNL1        0.0222
     21 C          66.7936   95.6260   10.5164 C.ar    1  UNL1        0.0310
     22 C          67.5201   94.8835    9.4344 C.ar    1  UNL1        0.1402
     23 F          68.2198   95.6407    8.3448 F       1  UNL1       -0.2042
     24 C          67.5471   93.3837    9.4419 C.ar    1  UNL1        0.0310
     25 C          66.8475   92.6265   10.5315 C.ar    1  UNL1        0.0222
     26 C          63.2035   84.9154   13.3754 C.3     1  UNL1        0.1116
     27 C          64.4459   84.1054   13.1517 C.3     1  UNL1        0.0661
     28 O          64.7696   83.0534   10.7983 O.co2   1  UNL1       -0.5491
     29 C          64.4088   82.9094   12.2471 C.2     1  UNL1        0.0523
     30 O          64.0110   81.5694   12.7914 O.co2   1  UNL1       -0.5491
@<TRIPOS>UNITY_ATOM_ATTR
28 1
charge -1
@<TRIPOS>BOND
     1    28    29   ar
     2    29    30   ar
     3    29    27    1
     4    27    26    1
     5    26     1    1
     6     1     2   ar
     7     2     3   ar
     8     3     4   ar
     9     4     5   ar
    10     5     6   ar
    11     6     7   ar
    12     7     8   ar
    13     8     9   ar
    14     3    10    1
    15    10    11    1
    16    11    14    1
    17    14    16    1
    18    16    17    2
    19    16    18    2
    20    16    19    1
    21    19    20   ar
    22    20    21   ar
    23    21    22   ar
    24    22    23    1
    25    22    24   ar
    26    24    25   ar
    27    11    12    1
    28    12    13    1
    29     9     1   ar
    30    25    19   ar
    31    13     2    1
    32     9     4   ar
    33    14    15    1
@<TRIPOS>MOLECULE
*****
 30 33 0 0 0
SMALL
GASTEIGER

@<TRIPOS>ATOM
      1 N          63.4975   89.9020   12.7029 N.ar    1  UNL1       -0.3306
      2 C          63.7820   88.6006   13.3923 C.ar    1  UNL1        0.0332
      3 C          63.1289   87.5053   12.6026 C.ar    1  UNL1       -0.0077
      4 C          62.4407   88.1297   11.4252 C.ar    1  UNL1        0.0129
      5 C          61.6360   87.5408   10.3046 C.ar    1  UNL1        0.0012
      6 C          61.0592   88.4333    9.2459 C.ar    1  UNL1        0.0001
      7 C          61.2870   89.9146    9.3079 C.ar    1  UNL1        0.0015
      8 C          62.0916   90.5034   10.4285 C.ar    1  UNL1        0.0172
      9 C          62.6685   89.6110   11.4871 C.ar    1  UNL1        0.0593
     10 C          63.2452   86.0807   13.0578 C.3     1  UNL1        0.0449
     11 C          64.0147   85.7516   14.3027 C.3     1  UNL1        0.0803
     12 C          64.6678   86.8469   15.0923 C.3     1  UNL1        0.0240
     13 C          64.5515   88.2714   14.6372 C.3     1  UNL1        0.0449
     14 N          64.1310   84.3270   14.7578 N.3     1  UNL1       -0.1804
     15 H          63.5119   84.2232   15.5618 H       1  UNL1        0.1488
     16 S          63.8046   83.2088   13.8128 S.O2    1  UNL1        0.0602
     17 O          65.0296   83.5302   13.0092 O.2     1  UNL1       -0.1530
     18 O          62.5794   82.8873   14.6163 O.2     1  UNL1       -0.1530
     19 C          63.4781   82.0905   12.8677 C.ar    1  UNL1        0.1221
     20 C          62.9158   80.8035   13.3944 C.ar    1  UNL1        0.0222
     21 C          62.5893   79.6854   12.4494 C.ar    1  UNL1        0.0310
     22 C          62.8252   79.8542   10.9778 C.ar    1  UNL1        0.1402
     23 F          62.4987   78.7360   10.0328 F       1  UNL1       -0.2042
     24 C          63.3875   81.1411   10.4510 C.ar    1  UNL1        0.0310
     25 C          63.7140   82.2594   11.3960 C.ar    1  UNL1        0.0222
     26 C          63.9606   91.2567   13.1506 C.3     1  UNL1        0.1116
     27 C          64.9974   91.9950   12.3570 C.3     1  UNL1        0.0661
     28 O          65.9671   93.7279   14.0324 O.co2   1  UNL1       -0.5491
     29 C          66.1749   92.6120   13.0518 C.2     1  UNL1        0.0523
     30 O          67.5603   92.1130   12.7660 O.co2   1  UNL1       -0.5491
@<TRIPOS>UNITY_ATOM_ATTR
28 1
charge -1
@<TRIPOS>BOND
     1    28    29   ar
     2    29    30   ar
     3    29    27    1
     4    27    26    1
     5    26     1    1
     6     1     2   ar
     7     2     3   ar
     8     3     4   ar
     9     4     5   ar
    10     5     6   ar
    11     6     7   ar
    12     7     8   ar
    13     8     9   ar
    14     3    10    1
    15    10    11    1
    16    11    14    1
    17    14    16    1
    18    16    17    2
    19    16    18    2
    20    16    19    1
    21    19    20   ar
    22    20    21   ar
    23    21    22   ar
    24    22    23    1
    25    22    24   ar
    26    24    25   ar
    27    11    12    1
    28    12    13    1
    29     9     1   ar
    30    25    19   ar
    31    13     2    1
    32     9     4   ar
    33    14    15    1
@<TRIPOS>MOLECULE
*****
 30 33 0 0 0
SMALL
GASTEIGER

@<TRIPOS>ATOM
      1 N          65.4983   92.1004   13.8870 N.ar    1  UNL1       -0.3306
      2 C          64.3232   91.2067   13.6217 C.ar    1  UNL1        0.0332
      3 C          63.9374   91.3638   12.1807 C.ar    1  UNL1       -0.0077
      4 C          64.8741   92.3547   11.5554 C.ar    1  UNL1        0.0129
      5 C          64.9732   92.9011   10.1620 C.ar    1  UNL1        0.0012
      6 C          66.0370   93.9029    9.8233 C.ar    1  UNL1        0.0001
      7 C          67.0016   94.3582   10.8778 C.ar    1  UNL1        0.0015
      8 C          66.9025   93.8117   12.2712 C.ar    1  UNL1        0.0172
      9 C          65.8387   92.8099   12.6100 C.ar    1  UNL1        0.0593
     10 C          62.7831   90.5843   11.6240 C.3     1  UNL1        0.0449
     11 C          62.0145   89.6477   12.5084 C.3     1  UNL1        0.0803
     12 C          62.4003   89.4906   13.9494 C.3     1  UNL1        0.0240
     13 C          63.5546   90.2701   14.5060 C.3     1  UNL1        0.0449
     14 N          60.8601   88.8682   11.9517 N.3     1  UNL1       -0.1804
     15 H          60.1525   89.5481   11.6735 H       1  UNL1        0.1488
     16 S          61.0674   87.9549   10.7799 S.O2    1  UNL1        0.0602
     17 O          60.1915   88.8351    9.9387 O.2     1  UNL1       -0.1530
     18 O          61.9435   87.0746   11.6212 O.2     1  UNL1       -0.1530
     19 C          61.2748   87.0416    9.6083 C.ar    1  UNL1        0.1221
     20 C          60.1502   86.7841    8.6497 C.ar    1  UNL1        0.0222
     21 C          60.3576   85.8709    7.4781 C.ar    1  UNL1        0.0310
     22 C          61.6896   85.2149    7.2650 C.ar    1  UNL1        0.1402
     23 F          61.8970   84.3016    6.0933 F       1  UNL1       -0.2042
     24 C          62.8143   85.4722    8.2235 C.ar    1  UNL1        0.0310
     25 C          62.6069   86.3856    9.3952 C.ar    1  UNL1        0.0222
     26 C          66.2082   92.2572   15.1990 C.3     1  UNL1        0.1116
     27 C          67.6077   91.7424   15.3607 C.3     1  UNL1        0.0661
     28 O          69.7309   92.3808   14.0062 O.co2   1  UNL1       -0.5491
     29 C          68.7746   92.6560   15.1285 C.2     1  UNL1        0.0523
     30 O          68.9850   93.8448   16.0187 O.co2   1  UNL1       -0.5491
@<TRIPOS>UNITY_ATOM_ATTR
28 1
charge -1
@<TRIPOS>BOND
     1    28    29   ar
     2    29    30   ar
     3    29    27    1
     4    27    26    1
     5    26     1    1
     6     1     2   ar
     7     2     3   ar
     8     3     4   ar
     9     4     5   ar
    10     5     6   ar
    11     6     7   ar
    12     7     8   ar
    13     8     9   ar
    14     3    10    1
    15    10    11    1
    16    11    14    1
    17    14    16    1
    18    16    17    2
    19    16    18    2
    20    16    19    1
    21    19    20   ar
    22    20    21   ar
    23    21    22   ar
    24    22    23    1
    25    22    24   ar
    26    24    25   ar
    27    11    12    1
    28    12    13    1
    29     9     1   ar
    30    25    19   ar
    31    13     2    1
    32     9     4   ar
    33    14    15    1
@<TRIPOS>MOLECULE
*****
 30 33 0 0 0
SMALL
GASTEIGER

@<TRIPOS>ATOM
      1 N          65.7503   92.1754   14.4653 N.ar    1  UNL1       -0.3306
      2 C          65.0215   90.9074   14.1324 C.ar    1  UNL1        0.0332
      3 C          64.6394   90.9594   12.6828 C.ar    1  UNL1       -0.0077
      4 C          65.1320   92.2596   12.1199 C.ar    1  UNL1        0.0129
      5 C          65.0442   92.8562   10.7465 C.ar    1  UNL1        0.0012
      6 C          65.6429   94.2044   10.4748 C.ar    1  UNL1        0.0001
      7 C          66.3295   94.9560   11.5765 C.ar    1  UNL1        0.0015
      8 C          66.4174   94.3593   12.9499 C.ar    1  UNL1        0.0172
      9 C          65.8187   93.0111   13.2216 C.ar    1  UNL1        0.0593
     10 C          63.8922   89.8161   12.0627 C.3     1  UNL1        0.0449
     11 C          63.5271   88.6208   12.8921 C.3     1  UNL1        0.0803
     12 C          63.9092   88.5688   14.3417 C.3     1  UNL1        0.0240
     13 C          64.6564   89.7121   14.9618 C.3     1  UNL1        0.0449
     14 N          62.7799   87.4775   12.2719 N.3     1  UNL1       -0.1804
     15 H          62.1785   87.0898   12.9989 H       1  UNL1        0.1488
     16 S          61.9118   87.7122   11.0714 S.O2    1  UNL1        0.0602
     17 O          62.6917   86.6845   10.3064 O.2     1  UNL1       -0.1530
     18 O          61.1318   88.7400   11.8364 O.2     1  UNL1       -0.1530
     19 C          61.0436   87.9470    9.8709 C.ar    1  UNL1        0.1221
     20 C          60.3937   86.7869    9.1769 C.ar    1  UNL1        0.0222
     21 C          59.5256   87.0217    7.9764 C.ar    1  UNL1        0.0310
     22 C          59.3073   88.4166    7.4699 C.ar    1  UNL1        0.1402
     23 F          58.4392   88.6514    6.2694 F       1  UNL1       -0.2042
     24 C          59.9572   89.5768    8.1639 C.ar    1  UNL1        0.0310
     25 C          60.8254   89.3420    9.3644 C.ar    1  UNL1        0.0222
     26 C          66.3122   92.5432   15.8066 C.3     1  UNL1        0.1116
     27 C          67.7479   92.2478   16.1250 C.3     1  UNL1        0.0661
     28 O          69.4167   92.5379   14.1550 O.co2   1  UNL1       -0.5491
     29 C          68.8406   93.0242   15.4518 C.2     1  UNL1        0.0523
     30 O          69.3571   94.2869   16.0752 O.co2   1  UNL1       -0.5491
@<TRIPOS>UNITY_ATOM_ATTR
28 1
charge -1
@<TRIPOS>BOND
     1    28    29   ar
     2    29    30   ar
     3    29    27    1
     4    27    26    1
     5    26     1    1
     6     1     2   ar
     7     2     3   ar
     8     3     4   ar
     9     4     5   ar
    10     5     6   ar
    11     6     7   ar
    12     7     8   ar
    13     8     9   ar
    14     3    10    1
    15    10    11    1
    16    11    14    1
    17    14    16    1
    18    16    17    2
    19    16    18    2
    20    16    19    1
    21    19    20   ar
    22    20    21   ar
    23    21    22   ar
    24    22    23    1
    25    22    24   ar
    26    24    25   ar
    27    11    12    1
    28    12    13    1
    29     9     1   ar
    30    25    19   ar
    31    13     2    1
    32     9     4   ar
    33    14    15    1
@<TRIPOS>MOLECULE
*****
 30 33 0 0 0
SMALL
GASTEIGER

@<TRIPOS>ATOM
      1 N          62.2117   86.4229   11.4389 N.ar    1  UNL1       -0.3306
      2 C          62.6319   87.8469   11.6529 C.ar    1  UNL1        0.0332
      3 C          63.5158   87.8923   12.8640 C.ar    1  UNL1       -0.0077
      4 C          63.6419   86.4964   13.3984 C.ar    1  UNL1        0.0129
      5 C          64.3865   85.9349   14.5732 C.ar    1  UNL1        0.0012
      6 C          64.3251   84.4653   14.8673 C.ar    1  UNL1        0.0001
      7 C          63.5191   83.5572   13.9865 C.ar    1  UNL1        0.0015
      8 C          62.7745   84.1187   12.8117 C.ar    1  UNL1        0.0172
      9 C          62.8359   85.5883   12.5176 C.ar    1  UNL1        0.0593
     10 C          64.0916   89.1988   13.3237 C.3     1  UNL1        0.0449
     11 C          63.7835   90.4600   12.5723 C.3     1  UNL1        0.0803
     12 C          62.8996   90.4146   11.3612 C.3     1  UNL1        0.0240
     13 C          62.3238   89.1081   10.9015 C.3     1  UNL1        0.0449
     14 N          64.3594   91.7666   13.0320 N.3     1  UNL1       -0.1804
     15 H          64.9750   91.5569   13.8178 H       1  UNL1        0.1488
     16 S          65.1475   92.6155   12.0790 S.O2    1  UNL1        0.0602
     17 O          64.5664   91.8571   10.9227 O.2     1  UNL1       -0.1530
     18 O          65.7287   93.3739   13.2353 O.2     1  UNL1       -0.1530
     19 C          65.9357   93.4644   11.1260 C.ar    1  UNL1        0.1221
     20 C          65.7555   94.9536   11.1230 C.ar    1  UNL1        0.0222
     21 C          66.5436   95.8024   10.1701 C.ar    1  UNL1        0.0310
     22 C          67.5120   95.1623    9.2201 C.ar    1  UNL1        0.1402
     23 F          68.3001   96.0112    8.2671 F       1  UNL1       -0.2042
     24 C          67.6922   93.6731    9.2230 C.ar    1  UNL1        0.0310
     25 C          66.9041   92.8242   10.1760 C.ar    1  UNL1        0.0222
     26 C          61.3233   85.9216   10.3391 C.3     1  UNL1        0.1116
     27 C          61.5012   86.4317    8.9399 C.3     1  UNL1        0.0661
     28 O          59.9293   88.3698    8.2166 O.co2   1  UNL1       -0.5491
     29 C          60.3148   86.9211    8.1634 C.2     1  UNL1        0.0523
     30 O          59.5138   85.9619    7.3338 O.co2   1  UNL1       -0.5491
@<TRIPOS>UNITY_ATOM_ATTR
28 1
charge -1
@<TRIPOS>BOND
     1    28    29   ar
     2    29    30   ar
     3    29    27    1
     4    27    26    1
     5    26     1    1
     6     1     2   ar
     7     2     3   ar
     8     3     4   ar
     9     4     5   ar
    10     5     6   ar
    11     6     7   ar
    12     7     8   ar
    13     8     9   ar
    14     3    10    1
    15    10    11    1
    16    11    14    1
    17    14    16    1
    18    16    17    2
    19    16    18    2
    20    16    19    1
    21    19    20   ar
    22    20    21   ar
    23    21    22   ar
    24    22    23    1
    25    22    24   ar
    26    24    25   ar
    27    11    12    1
    28    12    13    1
    29     9     1   ar
    30    25    19   ar
    31    13     2    1
    32     9     4   ar
    33    14    15    1
@<TRIPOS>MOLECULE
*****
 30 33 0 0 0
SMALL
GASTEIGER

@<TRIPOS>ATOM
      1 N          63.9119   85.9866   14.4355 N.ar    1  UNL1       -0.3306
      2 C          63.8961   87.4726   14.2315 C.ar    1  UNL1        0.0332
      3 C          63.3582   87.7461   12.8582 C.ar    1  UNL1       -0.0077
      4 C          63.0417   86.4292   12.2135 C.ar    1  UNL1        0.0129
      5 C          62.4860   86.0798   10.8648 C.ar    1  UNL1        0.0012
      6 C          62.2726   84.6430   10.4909 C.ar    1  UNL1        0.0001
      7 C          62.6148   83.5555   11.4657 C.ar    1  UNL1        0.0015
      8 C          63.1705   83.9049   12.8145 C.ar    1  UNL1        0.0172
      9 C          63.3839   85.3418   13.1884 C.ar    1  UNL1        0.0593
     10 C          63.2262   89.1590   12.3722 C.3     1  UNL1        0.0449
     11 C          63.6320   90.2984   13.2594 C.3     1  UNL1        0.0803
     12 C          64.1699   90.0249   14.6327 C.3     1  UNL1        0.0240
     13 C          64.3019   88.6120   15.1187 C.3     1  UNL1        0.0449
     14 N          63.5000   91.7114   12.7733 N.3     1  UNL1       -0.1804
     15 H          63.4281   92.3022   13.6016 H       1  UNL1        0.1488
     16 S          64.5683   92.3091   11.9064 S.O2    1  UNL1        0.0602
     17 O          63.7996   91.9081   10.6825 O.2     1  UNL1       -0.1530
     18 O          65.3370   92.7101   13.1305 O.2     1  UNL1       -0.1530
     19 C          65.6367   92.9068   11.0396 C.ar    1  UNL1        0.1221
     20 C          66.8267   92.0850   10.6417 C.ar    1  UNL1        0.0222
     21 C          67.8950   92.6827    9.7750 C.ar    1  UNL1        0.0310
     22 C          67.7733   94.1023    9.3061 C.ar    1  UNL1        0.1402
     23 F          68.8417   94.7001    8.4393 F       1  UNL1       -0.2042
     24 C          66.5833   94.9243    9.7039 C.ar    1  UNL1        0.0310
     25 C          65.5149   94.3265   10.5707 C.ar    1  UNL1        0.0222
     26 C          64.3746   85.2711   15.6700 C.3     1  UNL1        0.1116
     27 C          63.3849   84.8866   16.7294 C.3     1  UNL1        0.0661
     28 O          62.9272   86.8427   18.3768 O.co2   1  UNL1       -0.5491
     29 C          62.4536   85.9173   17.2955 C.2     1  UNL1        0.0523
     30 O          61.0489   86.0226   16.7802 O.co2   1  UNL1       -0.5491
@<TRIPOS>UNITY_ATOM_ATTR
28 1
charge -1
@<TRIPOS>BOND
     1    28    29   ar
     2    29    30   ar
     3    29    27    1
     4    27    26    1
     5    26     1    1
     6     1     2   ar
     7     2     3   ar
     8     3     4   ar
     9     4     5   ar
    10     5     6   ar
    11     6     7   ar
    12     7     8   ar
    13     8     9   ar
    14     3    10    1
    15    10    11    1
    16    11    14    1
    17    14    16    1
    18    16    17    2
    19    16    18    2
    20    16    19    1
    21    19    20   ar
    22    20    21   ar
    23    21    22   ar
    24    22    23    1
    25    22    24   ar
    26    24    25   ar
    27    11    12    1
    28    12    13    1
    29     9     1   ar
    30    25    19   ar
    31    13     2    1
    32     9     4   ar
    33    14    15    1
