@<TRIPOS>MOLECULE
*****
 22 24 0 0 0
SMALL
GASTEIGER

@<TRIPOS>ATOM
      1 C          60.1458   87.4395    9.6750 C.2     1  UNL1        0.0428
      2 C          61.2678   86.4456    9.6178 C.2     1  UNL1       -0.0145
      3 C          62.2274   86.2636    8.4793 C.3     1  UNL1        0.0458
      4 C          63.1798   85.1647    8.8470 C.3     1  UNL1        0.0985
      5 N          62.8090   84.6675   10.2127 N.am    1  UNL1       -0.2694
      6 C          63.4987   83.5712   10.9692 C.2     1  UNL1        0.2840
      7 O          64.6746   82.8655   10.3614 O.2     1  UNL1       -0.2665
      8 C          61.6273   85.4591   10.6891 C.3     1  UNL1        0.1170
      9 C          63.0126   83.1806   12.3334 C.ar    1  UNL1        0.1987
     10 C          62.3945   81.8657   12.7061 C.ar    1  UNL1        0.0455
     11 C          62.0591   81.9087   14.1675 C.ar    1  UNL1        0.0440
     12 C          62.4700   83.2503   14.6980 C.ar    1  UNL1        0.1798
     13 O          63.0593   84.0363   13.5645 O.2     1  UNL1       -0.4458
     14 C          59.6662   89.2945    7.3666 C.1     1  UNL1       -0.0405
     15 C          59.9060   88.3670    8.5208 C.1     1  UNL1       -0.0582
     16 C          61.4980   92.1282    3.4150 C.3     1  UNL1        0.0521
     17 C          60.3423   91.6389    4.2366 C.ar    1  UNL1        0.0600
     18 C          58.9468   92.0772    3.9040 C.ar    1  UNL1        0.0148
     19 C          57.7912   91.5879    4.7256 C.ar    1  UNL1        0.0034
     20 C          58.0309   90.6604    5.8798 C.ar    1  UNL1        0.0276
     21 C          59.4264   90.2221    6.2124 C.ar    1  UNL1        0.1224
     22 N          60.5820   90.7114    5.3908 N.ar    1  UNL1       -0.2414
@<TRIPOS>BOND
     1    16    17    1
     2    17    18   ar
     3    18    19   ar
     4    19    20   ar
     5    20    21   ar
     6    21    14    1
     7    14    15    3
     8    15     1    1
     9     1     2    2
    10     2     3    1
    11     3     4    1
    12     4     5    1
    13     5     6   am
    14     6     7    2
    15     6     9    1
    16     9    10   ar
    17    10    11   ar
    18    11    12   ar
    19    12    13   ar
    20     5     8    1
    21    21    22   ar
    22    22    17   ar
    23     8     2    1
    24    13     9   ar
@<TRIPOS>MOLECULE
*****
 22 24 0 0 0
SMALL
GASTEIGER

@<TRIPOS>ATOM
      1 C          60.4929   87.3736    9.9233 C.2     1  UNL1        0.0428
      2 C          61.5401   86.3119    9.7619 C.2     1  UNL1       -0.0145
      3 C          62.3252   86.0302    8.5150 C.3     1  UNL1        0.0458
      4 C          63.2565   84.8897    8.8015 C.3     1  UNL1        0.0985
      5 N          63.0470   84.4665   10.2253 N.am    1  UNL1       -0.2694
      6 C          63.7712   83.3590   10.9314 C.2     1  UNL1        0.2840
      7 O          64.8131   82.5612   10.2048 O.2     1  UNL1       -0.2665
      8 C          61.9863   85.3455   10.8188 C.3     1  UNL1        0.1170
      9 C          63.4534   83.0491   12.3643 C.ar    1  UNL1        0.1987
     10 C          62.3921   82.1059   12.8479 C.ar    1  UNL1        0.0455
     11 C          62.4239   82.1020   14.3476 C.ar    1  UNL1        0.0440
     12 C          63.5050   83.0427   14.7908 C.ar    1  UNL1        0.1798
     13 O          64.1412   83.6280   13.5650 O.2     1  UNL1       -0.4458
     14 C          59.8084   89.1681    7.6187 C.1     1  UNL1       -0.0405
     15 C          60.1506   88.2709    8.7710 C.1     1  UNL1       -0.0582
     16 C          56.2610   91.6684    4.7614 C.3     1  UNL1        0.0521
     17 C          57.6924   91.3155    5.0378 C.ar    1  UNL1        0.0600
     18 C          58.7816   91.8599    4.1619 C.ar    1  UNL1        0.0148
     19 C          60.2131   91.5070    4.4382 C.ar    1  UNL1        0.0034
     20 C          60.5554   90.6098    5.5905 C.ar    1  UNL1        0.0276
     21 C          59.4662   90.0654    6.4664 C.ar    1  UNL1        0.1224
     22 N          58.0347   90.4183    6.1900 N.ar    1  UNL1       -0.2414
@<TRIPOS>BOND
     1    16    17    1
     2    17    18   ar
     3    18    19   ar
     4    19    20   ar
     5    20    21   ar
     6    21    14    1
     7    14    15    3
     8    15     1    1
     9     1     2    2
    10     2     3    1
    11     3     4    1
    12     4     5    1
    13     5     6   am
    14     6     7    2
    15     6     9    1
    16     9    10   ar
    17    10    11   ar
    18    11    12   ar
    19    12    13   ar
    20     5     8    1
    21    21    22   ar
    22    22    17   ar
    23     8     2    1
    24    13     9   ar
@<TRIPOS>MOLECULE
*****
 22 24 0 0 0
SMALL
GASTEIGER

@<TRIPOS>ATOM
      1 C          60.1410   86.4958    8.6601 C.2     1  UNL1        0.0428
      2 C          61.0747   86.6714    9.8208 C.2     1  UNL1       -0.0145
      3 C          61.7793   87.9397   10.2015 C.3     1  UNL1        0.0458
      4 C          62.6078   87.6616   11.4207 C.3     1  UNL1        0.0985
      5 N          62.4152   86.2215   11.7935 N.am    1  UNL1       -0.2694
      6 C          63.0573   85.5172   12.9517 C.2     1  UNL1        0.2840
      7 O          63.9886   86.2634   13.8605 O.2     1  UNL1       -0.2665
      8 C          61.4676   85.6095   10.8047 C.3     1  UNL1        0.1170
      9 C          62.7681   84.0666   13.2011 C.ar    1  UNL1        0.1987
     10 C          63.0795   82.9327   12.2699 C.ar    1  UNL1        0.0455
     11 C          62.6206   81.6606   12.9188 C.ar    1  UNL1        0.0440
     12 C          62.0256   82.0083   14.2511 C.ar    1  UNL1        0.1798
     13 O          62.1168   83.4953   14.4255 O.2     1  UNL1       -0.4458
     14 C          59.5409   88.8145    6.8536 C.1     1  UNL1       -0.0405
     15 C          59.8410   87.6552    7.7568 C.1     1  UNL1       -0.0582
     16 C          61.1432   92.4023    3.4535 C.3     1  UNL1        0.0521
     17 C          60.0421   91.7678    4.2503 C.ar    1  UNL1        0.0600
     18 C          58.6410   92.2927    4.1439 C.ar    1  UNL1        0.0148
     19 C          57.5399   91.6582    4.9407 C.ar    1  UNL1        0.0034
     20 C          57.8398   90.4989    5.8440 C.ar    1  UNL1        0.0276
     21 C          59.2409   89.9740    5.9503 C.ar    1  UNL1        0.1224
     22 N          60.3420   90.6084    5.1535 N.ar    1  UNL1       -0.2414
@<TRIPOS>BOND
     1    16    17    1
     2    17    18   ar
     3    18    19   ar
     4    19    20   ar
     5    20    21   ar
     6    21    14    1
     7    14    15    3
     8    15     1    1
     9     1     2    2
    10     2     3    1
    11     3     4    1
    12     4     5    1
    13     5     6   am
    14     6     7    2
    15     6     9    1
    16     9    10   ar
    17    10    11   ar
    18    11    12   ar
    19    12    13   ar
    20     5     8    1
    21    21    22   ar
    22    22    17   ar
    23     8     2    1
    24    13     9   ar
@<TRIPOS>MOLECULE
*****
 22 24 0 0 0
SMALL
GASTEIGER

@<TRIPOS>ATOM
      1 C          60.3848   86.2771    8.7946 C.2     1  UNL1        0.0428
      2 C          61.2654   86.4845    9.9910 C.2     1  UNL1       -0.0145
      3 C          61.8545   87.7902   10.4364 C.3     1  UNL1        0.0458
      4 C          62.6648   87.5353   11.6728 C.3     1  UNL1        0.0985
      5 N          62.5764   86.0722   11.9915 N.am    1  UNL1       -0.2694
      6 C          63.2370   85.3801   13.1467 C.2     1  UNL1        0.2840
      7 O          64.0774   86.1647   14.1101 O.2     1  UNL1       -0.2665
      8 C          61.7116   85.4228   10.9521 C.3     1  UNL1        0.1170
      9 C          63.0571   83.9034   13.3386 C.ar    1  UNL1        0.1987
     10 C          63.7619   82.8225   12.5738 C.ar    1  UNL1        0.0455
     11 C          63.2812   81.4994   13.0915 C.ar    1  UNL1        0.0440
     12 C          62.2792   81.7624   14.1764 C.ar    1  UNL1        0.1798
     13 O          62.1407   83.2481   14.3291 O.2     1  UNL1       -0.4458
     14 C          59.6572   88.6039    7.0462 C.1     1  UNL1       -0.0405
     15 C          60.0209   87.4405    7.9204 C.1     1  UNL1       -0.0582
     16 C          56.0476   91.6580    4.8915 C.3     1  UNL1        0.0521
     17 C          57.4886   91.2943    5.0947 C.ar    1  UNL1        0.0600
     18 C          58.5657   92.0939    4.4237 C.ar    1  UNL1        0.0148
     19 C          60.0067   91.7302    4.6268 C.ar    1  UNL1        0.0034
     20 C          60.3705   90.5669    5.5010 C.ar    1  UNL1        0.0276
     21 C          59.2934   89.7673    6.1720 C.ar    1  UNL1        0.1224
     22 N          57.8524   90.1310    5.9689 N.ar    1  UNL1       -0.2414
@<TRIPOS>BOND
     1    16    17    1
     2    17    18   ar
     3    18    19   ar
     4    19    20   ar
     5    20    21   ar
     6    21    14    1
     7    14    15    3
     8    15     1    1
     9     1     2    2
    10     2     3    1
    11     3     4    1
    12     4     5    1
    13     5     6   am
    14     6     7    2
    15     6     9    1
    16     9    10   ar
    17    10    11   ar
    18    11    12   ar
    19    12    13   ar
    20     5     8    1
    21    21    22   ar
    22    22    17   ar
    23     8     2    1
    24    13     9   ar
@<TRIPOS>MOLECULE
*****
 22 24 0 0 0
SMALL
GASTEIGER

@<TRIPOS>ATOM
      1 C          64.4944   86.2867   15.1930 C.2     1  UNL1        0.0428
      2 C          64.2371   87.4700   14.3079 C.2     1  UNL1       -0.0145
      3 C          63.4251   87.4675   13.0466 C.3     1  UNL1        0.0458
      4 C          63.4327   88.8596   12.4877 C.3     1  UNL1        0.0985
      5 N          64.2493   89.7223   13.4036 N.am    1  UNL1       -0.2694
      6 C          64.5210   91.1867   13.2258 C.2     1  UNL1        0.2840
      7 O          63.9538   91.9168   12.0446 O.2     1  UNL1       -0.2665
      8 C          64.7464   88.8635   14.5285 C.3     1  UNL1        0.1170
      9 C          65.3601   91.9210   14.2291 C.ar    1  UNL1        0.1987
     10 C          66.6597   92.6166   13.9514 C.ar    1  UNL1        0.0455
     11 C          67.1497   93.2142   15.2370 C.ar    1  UNL1        0.0440
     12 C          66.1529   92.8879   16.3094 C.ar    1  UNL1        0.1798
     13 O          65.0469   92.0887   15.6864 O.2     1  UNL1       -0.4458
     14 C          63.3373   83.6091   14.4919 C.1     1  UNL1       -0.0405
     15 C          63.9159   84.9479   14.8424 C.1     1  UNL1       -0.0582
     16 C          59.2826   80.3640   14.3219 C.3     1  UNL1        0.0521
     17 C          60.7314   80.6478   14.0563 C.ar    1  UNL1        0.0600
     18 C          61.6016   79.5928   13.4402 C.ar    1  UNL1        0.0148
     19 C          63.0504   79.8765   13.1746 C.ar    1  UNL1        0.0034
     20 C          63.6289   81.2153   13.5251 C.ar    1  UNL1        0.0276
     21 C          62.7587   82.2703   14.1413 C.ar    1  UNL1        0.1224
     22 N          61.3100   81.9865   14.4069 N.ar    1  UNL1       -0.2414
@<TRIPOS>BOND
     1    16    17    1
     2    17    18   ar
     3    18    19   ar
     4    19    20   ar
     5    20    21   ar
     6    21    14    1
     7    14    15    3
     8    15     1    1
     9     1     2    2
    10     2     3    1
    11     3     4    1
    12     4     5    1
    13     5     6   am
    14     6     7    2
    15     6     9    1
    16     9    10   ar
    17    10    11   ar
    18    11    12   ar
    19    12    13   ar
    20     5     8    1
    21    21    22   ar
    22    22    17   ar
    23     8     2    1
    24    13     9   ar
@<TRIPOS>MOLECULE
*****
 22 24 0 0 0
SMALL
GASTEIGER

@<TRIPOS>ATOM
      1 C          60.9704   88.1762    9.8052 C.2     1  UNL1        0.0428
      2 C          61.9191   88.8190   10.7731 C.2     1  UNL1       -0.0145
      3 C          62.4658   90.2127   10.6780 C.3     1  UNL1        0.0458
      4 C          63.3722   90.4360   11.8522 C.3     1  UNL1        0.0985
      5 N          63.3857   89.1805   12.6728 N.am    1  UNL1       -0.2694
      6 C          64.1611   88.9626   13.9382 C.2     1  UNL1        0.2840
      7 O          65.0223   90.0604   14.4886 O.2     1  UNL1       -0.2665
      8 C          62.4876   88.1811   12.0059 C.3     1  UNL1        0.1170
      9 C          64.0754   87.6467   14.6531 C.ar    1  UNL1        0.1987
     10 C          64.6174   86.3381   14.1595 C.ar    1  UNL1        0.0455
     11 C          64.3096   85.2911   15.1886 C.ar    1  UNL1        0.0440
     12 C          63.5772   85.9526   16.3182 C.ar    1  UNL1        0.1798
     13 O          63.4325   87.4084   15.9872 O.2     1  UNL1       -0.4458
     14 C          59.9983   89.7081    7.4160 C.1     1  UNL1       -0.0405
     15 C          60.4844   88.9422    8.6105 C.1     1  UNL1       -0.0582
     16 C          60.9984   92.4555    3.1203 C.3     1  UNL1        0.0521
     17 C          60.0124   91.8478    4.0735 C.ar    1  UNL1        0.0600
     18 C          58.5404   92.0060    3.8321 C.ar    1  UNL1        0.0148
     19 C          57.5545   91.3983    4.7852 C.ar    1  UNL1        0.0034
     20 C          58.0404   90.6323    5.9798 C.ar    1  UNL1        0.0276
     21 C          59.5123   90.4741    6.2213 C.ar    1  UNL1        0.1224
     22 N          60.4983   91.0818    5.2681 N.ar    1  UNL1       -0.2414
@<TRIPOS>BOND
     1    16    17    1
     2    17    18   ar
     3    18    19   ar
     4    19    20   ar
     5    20    21   ar
     6    21    14    1
     7    14    15    3
     8    15     1    1
     9     1     2    2
    10     2     3    1
    11     3     4    1
    12     4     5    1
    13     5     6   am
    14     6     7    2
    15     6     9    1
    16     9    10   ar
    17    10    11   ar
    18    11    12   ar
    19    12    13   ar
    20     5     8    1
    21    21    22   ar
    22    22    17   ar
    23     8     2    1
    24    13     9   ar
@<TRIPOS>MOLECULE
*****
 22 24 0 0 0
SMALL
GASTEIGER

@<TRIPOS>ATOM
      1 C          64.5614   86.0136   14.9246 C.2     1  UNL1        0.0428
      2 C          64.2406   87.2750   14.1790 C.2     1  UNL1       -0.0145
      3 C          63.4636   87.3695   12.8993 C.3     1  UNL1        0.0458
      4 C          63.3834   88.8163   12.5116 C.3     1  UNL1        0.0985
      5 N          64.1108   89.6160   13.5515 N.am    1  UNL1       -0.2694
      6 C          64.2788   91.1064   13.5595 C.2     1  UNL1        0.2840
      7 O          63.6899   91.9335   12.4554 O.2     1  UNL1       -0.2665
      8 C          64.6406   88.6634   14.5820 C.3     1  UNL1        0.1170
      9 C          65.0357   91.7699   14.6717 C.ar    1  UNL1        0.1987
     10 C          64.5652   91.9270   16.0873 C.ar    1  UNL1        0.0455
     11 C          65.6348   92.6469   16.8541 C.ar    1  UNL1        0.0440
     12 C          66.7663   92.9346   15.9123 C.ar    1  UNL1        0.1798
     13 O          66.3960   92.3926   14.5636 O.2     1  UNL1       -0.4458
     14 C          63.6222   83.3671   13.8689 C.1     1  UNL1       -0.0405
     15 C          64.0918   84.6903   14.3967 C.1     1  UNL1       -0.0582
     16 C          63.0963   80.0262    9.9241 C.3     1  UNL1        0.0521
     17 C          62.8897   80.3734   11.3686 C.ar    1  UNL1        0.0600
     18 C          62.2135   79.3975   12.2853 C.ar    1  UNL1        0.0148
     19 C          62.0069   79.7448   13.7298 C.ar    1  UNL1        0.0034
     20 C          62.4765   81.0680   14.2577 C.ar    1  UNL1        0.0276
     21 C          63.1526   82.0439   13.3410 C.ar    1  UNL1        0.1224
     22 N          63.3592   81.6966   11.8965 N.ar    1  UNL1       -0.2414
@<TRIPOS>BOND
     1    16    17    1
     2    17    18   ar
     3    18    19   ar
     4    19    20   ar
     5    20    21   ar
     6    21    14    1
     7    14    15    3
     8    15     1    1
     9     1     2    2
    10     2     3    1
    11     3     4    1
    12     4     5    1
    13     5     6   am
    14     6     7    2
    15     6     9    1
    16     9    10   ar
    17    10    11   ar
    18    11    12   ar
    19    12    13   ar
    20     5     8    1
    21    21    22   ar
    22    22    17   ar
    23     8     2    1
    24    13     9   ar
@<TRIPOS>MOLECULE
*****
 22 24 0 0 0
SMALL
GASTEIGER

@<TRIPOS>ATOM
      1 C          63.7287   89.5621   12.1909 C.2     1  UNL1        0.0428
      2 C          64.6350   90.4824   12.9536 C.2     1  UNL1       -0.0145
      3 C          65.3595   90.1524   14.2249 C.3     1  UNL1        0.0458
      4 C          66.1482   91.3603   14.6359 C.3     1  UNL1        0.0985
      5 N          65.9112   92.4368   13.6186 N.am    1  UNL1       -0.2694
      6 C          66.5051   93.8140   13.6377 C.2     1  UNL1        0.2840
      7 O          67.4295   94.2169   14.7482 O.2     1  UNL1       -0.2665
      8 C          64.9760   91.8942   12.5789 C.3     1  UNL1        0.1170
      9 C          66.1747   94.7885   12.5462 C.ar    1  UNL1        0.1987
     10 C          65.8562   94.4423   11.1219 C.ar    1  UNL1        0.0455
     11 C          65.5894   95.7200   10.3828 C.ar    1  UNL1        0.0440
     12 C          65.7430   96.8559   11.3504 C.ar    1  UNL1        0.1798
     13 O          66.1047   96.2802   12.6874 O.2     1  UNL1       -0.4458
     14 C          63.2329   86.7773   13.1903 C.1     1  UNL1       -0.0405
     15 C          63.4808   88.1697   12.6906 C.1     1  UNL1       -0.0582
     16 C          62.4143   81.7346   12.2407 C.3     1  UNL1        0.0521
     17 C          62.5757   82.8635   13.2152 C.ar    1  UNL1        0.0600
     18 C          62.4892   82.6000   14.6893 C.ar    1  UNL1        0.0148
     19 C          62.6506   83.7289   15.6638 C.ar    1  UNL1        0.0034
     20 C          62.8985   85.1213   15.1641 C.ar    1  UNL1        0.0276
     21 C          62.9850   85.3848   13.6900 C.ar    1  UNL1        0.1224
     22 N          62.8236   84.2559   12.7156 N.ar    1  UNL1       -0.2414
@<TRIPOS>BOND
     1    16    17    1
     2    17    18   ar
     3    18    19   ar
     4    19    20   ar
     5    20    21   ar
     6    21    14    1
     7    14    15    3
     8    15     1    1
     9     1     2    2
    10     2     3    1
    11     3     4    1
    12     4     5    1
    13     5     6   am
    14     6     7    2
    15     6     9    1
    16     9    10   ar
    17    10    11   ar
    18    11    12   ar
    19    12    13   ar
    20     5     8    1
    21    21    22   ar
    22    22    17   ar
    23     8     2    1
    24    13     9   ar
@<TRIPOS>MOLECULE
*****
 22 24 0 0 0
SMALL
GASTEIGER

@<TRIPOS>ATOM
      1 C          64.4465   90.8674   11.3257 C.2     1  UNL1        0.0428
      2 C          64.3647   91.0655   12.8103 C.2     1  UNL1       -0.0145
      3 C          63.2153   90.6721   13.6903 C.3     1  UNL1        0.0458
      4 C          63.5582   91.0553   15.0995 C.3     1  UNL1        0.0985
      5 N          64.9194   91.6854   15.0904 N.am    1  UNL1       -0.2694
      6 C          65.6532   92.2161   16.2862 C.2     1  UNL1        0.2840
      7 O          65.0248   92.1407   17.6461 O.2     1  UNL1       -0.2665
      8 C          65.4178   91.6918   13.6757 C.3     1  UNL1        0.1170
      9 C          67.0154   92.8221   16.1220 C.ar    1  UNL1        0.1987
     10 C          68.3228   92.1396   16.3958 C.ar    1  UNL1        0.0455
     11 C          69.4249   93.1127   16.0982 C.ar    1  UNL1        0.0440
     12 C          68.7986   94.3966   15.6405 C.ar    1  UNL1        0.1798
     13 O          67.3095   94.2169   15.6552 O.2     1  UNL1       -0.4458
     14 C          62.1707   89.5779    9.8569 C.1     1  UNL1       -0.0405
     15 C          63.3086   90.2226   10.5913 C.1     1  UNL1       -0.0582
     16 C          58.5815   89.7203    6.1022 C.3     1  UNL1        0.0521
     17 C          59.2382   89.0043    7.2451 C.ar    1  UNL1        0.0600
     18 C          58.7569   87.6436    7.6535 C.ar    1  UNL1        0.0148
     19 C          59.4136   86.9276    8.7963 C.ar    1  UNL1        0.0034
     20 C          60.5515   87.5723    9.5308 C.ar    1  UNL1        0.0276
     21 C          61.0327   88.9331    9.1224 C.ar    1  UNL1        0.1224
     22 N          60.3760   89.6490    7.9795 N.ar    1  UNL1       -0.2414
@<TRIPOS>BOND
     1    16    17    1
     2    17    18   ar
     3    18    19   ar
     4    19    20   ar
     5    20    21   ar
     6    21    14    1
     7    14    15    3
     8    15     1    1
     9     1     2    2
    10     2     3    1
    11     3     4    1
    12     4     5    1
    13     5     6   am
    14     6     7    2
    15     6     9    1
    16     9    10   ar
    17    10    11   ar
    18    11    12   ar
    19    12    13   ar
    20     5     8    1
    21    21    22   ar
    22    22    17   ar
    23     8     2    1
    24    13     9   ar
