@<TRIPOS>MOLECULE
*****
 41 46 0 0 0
SMALL
GASTEIGER

@<TRIPOS>ATOM
      1 C          59.5765   88.7290    8.0060 C.ar    1  UNL1        0.0251
      2 C          59.6346   87.2394    8.1729 C.ar    1  UNL1        0.0233
      3 C          60.6519   86.9310    9.2311 C.ar    1  UNL1        0.0918
      4 N          61.1324   85.6351    9.8140 N.ar    1  UNL1       -0.2262
      5 C          62.1836   85.6381   10.8842 C.ar    1  UNL1        0.1604
      6 N          62.7543   86.9369   11.3712 N.ar    1  UNL1       -0.2117
      7 C          62.2738   88.2328   10.7883 C.ar    1  UNL1        0.1409
      8 C          61.2226   88.2298    9.7182 C.ar    1  UNL1        0.0785
      9 S          60.5580   89.3411    8.9610 S.2     1  UNL1       -0.0856
     10 C          62.6641   84.3422   11.4672 C.2     1  UNL1        0.0237
     11 C          62.5973   83.0835   10.6540 C.2     1  UNL1        0.0098
     12 C          63.0778   81.7876   11.2370 C.2     1  UNL1        0.0694
     13 C          63.6251   81.7505   12.6331 C.2     1  UNL1        0.0256
     14 C          63.6919   83.0092   13.4462 C.2     1  UNL1        0.0676
     15 N          64.1775   83.2795   14.8395 N.2     1  UNL1       -0.2478
     16 C          63.9972   84.7424   15.1176 C.2     1  UNL1        0.0946
     17 C          63.4001   85.3762   13.8962 C.2     1  UNL1        0.0046
     18 C          63.2114   84.3050   12.8633 C.3     1  UNL1        0.0889
     19 C          63.0110   80.5289   10.4238 C.1     1  UNL1        0.1004
     20 N          62.9442   79.2703    9.6106 N.1     1  UNL1       -0.1908
     21 N          62.8445   89.5317   11.2754 N.pl3   1  UNL1       -0.2876
     22 C          63.0337   89.7635   12.7453 C.3     1  UNL1        0.1243
     23 C          63.6044   91.0622   13.2324 C.3     1  UNL1        0.1636
     24 O          63.9859   92.1294   12.2497 O.3     1  UNL1       -0.3501
     25 C          63.7967   91.8976   10.7798 C.3     1  UNL1        0.1636
     26 C          63.2260   90.5988   10.2926 C.3     1  UNL1        0.1243
     27 C          58.6922   89.4755    7.0516 C.3     1  UNL1        0.1058
     28 N          60.5134   91.9784    3.7853 N.3     1  UNL1       -0.2655
     29 C          59.0760   92.1741    4.1671 C.3     1  UNL1        0.0900
     30 C          58.4690   91.3397    5.2559 C.3     1  UNL1        0.0899
     31 N          59.2993   90.3098    5.9629 N.3     1  UNL1       -0.2661
     32 C          60.7367   90.1141    5.5810 C.3     1  UNL1        0.0899
     33 C          61.3436   90.9485    4.4923 C.3     1  UNL1        0.0900
     34 C          62.4454   92.1481    2.9261 C.3     1  UNL1        0.0253
     35 C          61.1205   92.8127    2.6966 C.3     1  UNL1        0.1145
     36 C          59.7955   93.4774    2.4671 C.3     1  UNL1        0.0253
     37 C          61.7276   93.6470    1.6079 C.2     1  UNL1        0.2321
     38 N          61.1326   94.9805    1.2645 N.am    1  UNL1       -0.3278
     39 O          62.9298   93.1479    0.8625 O.2     1  UNL1       -0.2740
     40 H          60.3436   95.3081    1.7537 H       1  UNL1        0.1450
     41 H          61.5311   95.5280    0.5499 H       1  UNL1        0.1450
@<TRIPOS>BOND
     1    34    35    1
     2    35    36    1
     3    35    37    1
     4    37    38   am
     5    37    39    2
     6    35    28    1
     7    28    29    1
     8    29    30    1
     9    30    31    1
    10    31    27    1
    11    27     1    1
    12     1     2   ar
    13     2     3   ar
    14     3     4   ar
    15     4     5   ar
    16     5    10    1
    17    10    11    2
    18    11    12    1
    19    12    19    1
    20    19    20    3
    21    12    13    2
    22    13    14    1
    23    14    15    2
    24    15    16    1
    25    16    17    2
    26    17    18    1
    27     5     6   ar
    28     6     7   ar
    29     7    21    1
    30    21    22    1
    31    22    23    1
    32    23    24    1
    33    24    25    1
    34    25    26    1
    35     7     8   ar
    36     8     9   ar
    37    31    32    1
    38    32    33    1
    39    33    28    1
    40     9     1   ar
    41     8     3   ar
    42    18    10    1
    43    26    21    1
    44    18    14    1
    45    38    40    1
    46    38    41    1
@<TRIPOS>MOLECULE
*****
 41 46 0 0 0
SMALL
GASTEIGER

@<TRIPOS>ATOM
      1 C          63.6794   86.2067   14.4348 C.ar    1  UNL1        0.0251
      2 C          64.5851   87.2859   14.9494 C.ar    1  UNL1        0.0233
      3 C          64.4535   88.4731   14.0421 C.ar    1  UNL1        0.0918
      4 N          65.1050   89.8242   14.0562 N.ar    1  UNL1       -0.2262
      5 C          64.7694   90.8297   12.9949 C.ar    1  UNL1        0.1604
      6 N          63.7824   90.4842   11.9196 N.ar    1  UNL1       -0.2117
      7 C          63.1309   89.1331   11.9055 C.ar    1  UNL1        0.1409
      8 C          63.4665   88.1276   12.9667 C.ar    1  UNL1        0.0785
      9 S          62.9880   86.7268   13.2094 S.2     1  UNL1       -0.0856
     10 C          65.4209   92.1809   13.0090 C.2     1  UNL1        0.0237
     11 C          65.2673   93.0998   11.8335 C.2     1  UNL1        0.0098
     12 C          65.9188   94.4509   11.8476 C.2     1  UNL1        0.0694
     13 C          66.7238   94.8830   13.0372 C.2     1  UNL1        0.0256
     14 C          66.8774   93.9640   14.2128 C.2     1  UNL1        0.0676
     15 N          67.6050   94.1142   15.5158 N.2     1  UNL1       -0.2478
     16 C          67.4033   92.8559   16.3071 C.2     1  UNL1        0.0946
     17 C          66.5509   91.9281   15.4929 C.2     1  UNL1        0.0046
     18 C          66.2259   92.6129   14.1986 C.3     1  UNL1        0.0889
     19 C          65.7652   95.3699   10.6720 C.1     1  UNL1        0.1004
     20 N          65.6116   96.2888    9.4964 N.1     1  UNL1       -0.1908
     21 N          62.1439   88.7876   10.8301 N.pl3   1  UNL1       -0.2876
     22 C          61.0937   89.7807   10.4287 C.3     1  UNL1        0.1243
     23 C          60.1067   89.4353    9.3534 C.3     1  UNL1        0.1636
     24 O          60.1698   88.0967    8.6794 O.3     1  UNL1       -0.3501
     25 C          61.2199   87.1037    9.0807 C.3     1  UNL1        0.1636
     26 C          62.2070   87.4491   10.1561 C.3     1  UNL1        0.1243
     27 C          63.4970   84.8461   15.0394 C.3     1  UNL1        0.1058
     28 N          63.0546   81.2430   12.3799 N.3     1  UNL1       -0.2655
     29 C          62.1486   81.4181   13.5625 C.3     1  UNL1        0.0900
     30 C          62.2961   82.6191   14.4490 C.3     1  UNL1        0.0899
     31 N          63.3495   83.6451   14.1529 N.3     1  UNL1       -0.2661
     32 C          64.2555   83.4699   12.9702 C.3     1  UNL1        0.0899
     33 C          64.1080   82.2690   12.0838 C.3     1  UNL1        0.0900
     34 C          62.4772   79.2231   12.6743 C.3     1  UNL1        0.0253
     35 C          62.9071   80.0420   11.4934 C.3     1  UNL1        0.1145
     36 C          63.3371   80.8609   10.3125 C.3     1  UNL1        0.0253
     37 C          62.7597   78.8410   10.6070 C.2     1  UNL1        0.2321
     38 N          62.5604   79.0182    9.1309 N.am    1  UNL1       -0.3278
     39 O          62.8115   77.4627   11.1966 O.2     1  UNL1       -0.2740
     40 H          62.5264   79.9228    8.7438 H       1  UNL1        0.1450
     41 H          62.4636   78.2299    8.5491 H       1  UNL1        0.1450
@<TRIPOS>BOND
     1    34    35    1
     2    35    36    1
     3    35    37    1
     4    37    38   am
     5    37    39    2
     6    35    28    1
     7    28    29    1
     8    29    30    1
     9    30    31    1
    10    31    27    1
    11    27     1    1
    12     1     2   ar
    13     2     3   ar
    14     3     4   ar
    15     4     5   ar
    16     5    10    1
    17    10    11    2
    18    11    12    1
    19    12    19    1
    20    19    20    3
    21    12    13    2
    22    13    14    1
    23    14    15    2
    24    15    16    1
    25    16    17    2
    26    17    18    1
    27     5     6   ar
    28     6     7   ar
    29     7    21    1
    30    21    22    1
    31    22    23    1
    32    23    24    1
    33    24    25    1
    34    25    26    1
    35     7     8   ar
    36     8     9   ar
    37    31    32    1
    38    32    33    1
    39    33    28    1
    40     9     1   ar
    41     8     3   ar
    42    18    10    1
    43    26    21    1
    44    18    14    1
    45    38    40    1
    46    38    41    1
@<TRIPOS>MOLECULE
*****
 41 46 0 0 0
SMALL
GASTEIGER

@<TRIPOS>ATOM
      1 C          63.6853   89.6524   13.1667 C.ar    1  UNL1        0.0251
      2 C          64.1727   88.3708   13.7749 C.ar    1  UNL1        0.0233
      3 C          63.5695   87.2336   13.0049 C.ar    1  UNL1        0.0918
      4 N          63.6924   85.7458   13.1508 N.ar    1  UNL1       -0.2262
      5 C          62.9550   84.8367   12.2127 C.ar    1  UNL1        0.1604
      6 N          62.0949   85.4155   11.1287 N.ar    1  UNL1       -0.2117
      7 C          61.9720   86.9033   10.9828 C.ar    1  UNL1        0.1409
      8 C          62.7093   87.8123   11.9209 C.ar    1  UNL1        0.0785
      9 S          62.7809   89.3073   12.0209 S.2     1  UNL1       -0.0856
     10 C          63.0779   83.3488   12.3586 C.2     1  UNL1        0.0237
     11 C          62.7940   82.4545   11.1883 C.2     1  UNL1        0.0098
     12 C          62.9169   80.9667   11.3343 C.2     1  UNL1        0.0694
     13 C          63.3236   80.3732   12.6505 C.2     1  UNL1        0.0256
     14 C          63.6075   81.2676   13.8208 C.2     1  UNL1        0.0676
     15 N          64.0246   80.9730   15.2312 N.2     1  UNL1       -0.2478
     16 C          64.1596   82.2788   15.9569 C.2     1  UNL1        0.0946
     17 C          63.8258   83.3804   14.9950 C.2     1  UNL1        0.0046
     18 C          63.4846   82.7554   13.6748 C.3     1  UNL1        0.0889
     19 C          62.6330   80.0723   10.1639 C.1     1  UNL1        0.1004
     20 N          62.3491   79.1781    8.9936 N.1     1  UNL1       -0.1908
     21 N          61.1118   87.4821    9.8987 N.pl3   1  UNL1       -0.2876
     22 C          60.4276   86.5748    8.9195 C.3     1  UNL1        0.1243
     23 C          59.5675   87.1535    7.8355 C.3     1  UNL1        0.1636
     24 O          59.3914   88.6396    7.7306 O.3     1  UNL1       -0.3501
     25 C          60.0756   89.5467    8.7099 C.3     1  UNL1        0.1636
     26 C          60.9358   88.9680    9.7939 C.3     1  UNL1        0.1243
     27 C          64.0401   91.0362   13.6241 C.3     1  UNL1        0.1058
     28 N          65.7848   93.9904   10.7121 N.3     1  UNL1       -0.2655
     29 C          66.2103   94.0143   12.1503 C.3     1  UNL1        0.0900
     30 C          65.6286   93.0295   13.1210 C.3     1  UNL1        0.0899
     31 N          64.6216   92.0209   12.6534 N.3     1  UNL1       -0.2661
     32 C          64.1962   91.9970   11.2151 C.3     1  UNL1        0.0899
     33 C          64.7779   92.9817   10.2446 C.3     1  UNL1        0.0900
     34 C          65.3699   96.0035   10.1878 C.3     1  UNL1        0.0253
     35 C          66.3664   94.9750    9.7415 C.3     1  UNL1        0.1145
     36 C          67.3629   93.9466    9.2952 C.3     1  UNL1        0.0253
     37 C          66.9479   95.9598    8.7709 C.2     1  UNL1        0.2321
     38 N          68.0734   96.8560    9.1953 N.am    1  UNL1       -0.3278
     39 O          66.4040   96.0484    7.3758 O.2     1  UNL1       -0.2740
     40 H          68.4304   96.7979   10.1110 H       1  UNL1        0.1450
     41 H          68.4550   97.5023    8.5583 H       1  UNL1        0.1450
@<TRIPOS>BOND
     1    34    35    1
     2    35    36    1
     3    35    37    1
     4    37    38   am
     5    37    39    2
     6    35    28    1
     7    28    29    1
     8    29    30    1
     9    30    31    1
    10    31    27    1
    11    27     1    1
    12     1     2   ar
    13     2     3   ar
    14     3     4   ar
    15     4     5   ar
    16     5    10    1
    17    10    11    2
    18    11    12    1
    19    12    19    1
    20    19    20    3
    21    12    13    2
    22    13    14    1
    23    14    15    2
    24    15    16    1
    25    16    17    2
    26    17    18    1
    27     5     6   ar
    28     6     7   ar
    29     7    21    1
    30    21    22    1
    31    22    23    1
    32    23    24    1
    33    24    25    1
    34    25    26    1
    35     7     8   ar
    36     8     9   ar
    37    31    32    1
    38    32    33    1
    39    33    28    1
    40     9     1   ar
    41     8     3   ar
    42    18    10    1
    43    26    21    1
    44    18    14    1
    45    38    40    1
    46    38    41    1
@<TRIPOS>MOLECULE
*****
 41 46 0 0 0
SMALL
GASTEIGER

@<TRIPOS>ATOM
      1 C          63.0917   90.0917   11.8794 C.ar    1  UNL1        0.0251
      2 C          63.6070   88.9264   12.6709 C.ar    1  UNL1        0.0233
      3 C          63.0110   87.6758   12.0958 C.ar    1  UNL1        0.0918
      4 N          63.1588   86.2303   12.4684 N.ar    1  UNL1       -0.2262
      5 C          62.4229   85.1772   11.6940 C.ar    1  UNL1        0.1604
      6 N          61.5395   85.5696   10.5471 N.ar    1  UNL1       -0.2117
      7 C          61.3917   87.0151   10.1746 C.ar    1  UNL1        0.1409
      8 C          62.1275   88.0681   10.9489 C.ar    1  UNL1        0.0785
      9 S          62.1774   89.5613   10.8151 S.2     1  UNL1       -0.0856
     10 C          62.5707   83.7317   12.0665 C.2     1  UNL1        0.0237
     11 C          62.6676   82.6870   10.9945 C.2     1  UNL1        0.0098
     12 C          62.8154   81.2416   11.3671 C.2     1  UNL1        0.0694
     13 C          62.8662   80.8408   12.8116 C.2     1  UNL1        0.0256
     14 C          62.7692   81.8855   13.8837 C.2     1  UNL1        0.0676
     15 N          62.7895   81.7923   15.3807 N.2     1  UNL1       -0.2478
     16 C          62.6544   83.1802   15.9333 C.2     1  UNL1        0.0946
     17 C          62.5505   84.1311   14.7778 C.2     1  UNL1        0.0046
     18 C          62.6215   83.3309   13.5111 C.3     1  UNL1        0.0889
     19 C          62.9123   80.1969   10.2949 C.1     1  UNL1        0.1004
     20 N          63.0093   79.1523    9.2228 N.1     1  UNL1       -0.1908
     21 N          60.5082   87.4074    9.0276 N.pl3   1  UNL1       -0.2876
     22 C          59.8238   86.3505    8.2123 C.3     1  UNL1        0.1243
     23 C          58.9403   86.7428    7.0654 C.3     1  UNL1        0.1636
     24 O          58.7411   88.1921    6.7338 O.3     1  UNL1       -0.3501
     25 C          59.4254   89.2490    7.5491 C.3     1  UNL1        0.1636
     26 C          60.3089   88.8567    8.6960 C.3     1  UNL1        0.1243
     27 C          63.4312   91.5343   12.1114 C.3     1  UNL1        0.1058
     28 N          67.0867   92.6301   14.4962 N.3     1  UNL1       -0.2655
     29 C          65.9685   91.8691   15.1447 C.3     1  UNL1        0.0900
     30 C          64.7500   91.5039   14.3496 C.3     1  UNL1        0.0899
     31 N          64.6497   91.8996   12.9063 N.3     1  UNL1       -0.2661
     32 C          65.7680   92.6606   12.2579 C.3     1  UNL1        0.0899
     33 C          66.9864   93.0258   13.0528 C.3     1  UNL1        0.0900
     34 C          67.4317   93.4282   16.4311 C.3     1  UNL1        0.0253
     35 C          68.3051   92.9954   15.2911 C.3     1  UNL1        0.1145
     36 C          69.1786   92.5625   14.1511 C.3     1  UNL1        0.0253
     37 C          69.5235   93.3607   16.0861 C.2     1  UNL1        0.2321
     38 N          70.0354   94.7705   16.0688 N.am    1  UNL1       -0.3278
     39 O          70.2301   92.3162   16.8983 O.2     1  UNL1       -0.2740
     40 H          69.5717   95.4561   15.5357 H       1  UNL1        0.1450
     41 H          70.8351   95.0103   16.5906 H       1  UNL1        0.1450
@<TRIPOS>BOND
     1    34    35    1
     2    35    36    1
     3    35    37    1
     4    37    38   am
     5    37    39    2
     6    35    28    1
     7    28    29    1
     8    29    30    1
     9    30    31    1
    10    31    27    1
    11    27     1    1
    12     1     2   ar
    13     2     3   ar
    14     3     4   ar
    15     4     5   ar
    16     5    10    1
    17    10    11    2
    18    11    12    1
    19    12    19    1
    20    19    20    3
    21    12    13    2
    22    13    14    1
    23    14    15    2
    24    15    16    1
    25    16    17    2
    26    17    18    1
    27     5     6   ar
    28     6     7   ar
    29     7    21    1
    30    21    22    1
    31    22    23    1
    32    23    24    1
    33    24    25    1
    34    25    26    1
    35     7     8   ar
    36     8     9   ar
    37    31    32    1
    38    32    33    1
    39    33    28    1
    40     9     1   ar
    41     8     3   ar
    42    18    10    1
    43    26    21    1
    44    18    14    1
    45    38    40    1
    46    38    41    1
@<TRIPOS>MOLECULE
*****
 41 46 0 0 0
SMALL
GASTEIGER

@<TRIPOS>ATOM
      1 C          59.6331   88.9863    8.0617 C.ar    1  UNL1        0.0251
      2 C          59.6320   87.5339    8.4366 C.ar    1  UNL1        0.0233
      3 C          60.6833   87.3254    9.4861 C.ar    1  UNL1        0.0918
      4 N          61.1321   86.1014   10.2279 N.ar    1  UNL1       -0.2262
      5 C          62.2316   86.2010   11.2434 C.ar    1  UNL1        0.1604
      6 N          62.8822   87.5244   11.5171 N.ar    1  UNL1       -0.2117
      7 C          62.4335   88.7485   10.7753 C.ar    1  UNL1        0.1409
      8 C          61.3340   88.6490    9.7598 C.ar    1  UNL1        0.0785
      9 S          60.6849   89.6754    8.8794 S.2     1  UNL1       -0.0856
     10 C          62.6804   84.9769   11.9853 C.2     1  UNL1        0.0237
     11 C          62.5156   84.8997   13.4742 C.2     1  UNL1        0.0098
     12 C          62.9645   83.6757   14.2160 C.2     1  UNL1        0.0694
     13 C          63.5780   82.5288   13.4689 C.2     1  UNL1        0.0256
     14 C          63.7428   82.6059   11.9800 C.2     1  UNL1        0.0676
     15 N          64.3089   81.6403   10.9814 N.2     1  UNL1       -0.2478
     16 C          64.2100   82.2675    9.6225 C.2     1  UNL1        0.0946
     17 C          63.5827   83.6208    9.7812 C.2     1  UNL1        0.0046
     18 C          63.2940   83.8300   11.2382 C.3     1  UNL1        0.0889
     19 C          62.7996   83.5986   15.7050 C.1     1  UNL1        0.1004
     20 N          62.6348   83.5216   17.1939 N.1     1  UNL1       -0.1908
     21 N          63.0842   90.0720   11.0490 N.pl3   1  UNL1       -0.2876
     22 C          63.5403   90.4107   12.4373 C.3     1  UNL1        0.1243
     23 C          64.1910   91.7341   12.7110 C.3     1  UNL1        0.1636
     24 O          64.3856   92.7190   11.5964 O.3     1  UNL1       -0.3501
     25 C          63.9294   92.3804   10.2082 C.3     1  UNL1        0.1636
     26 C          63.2787   91.0568    9.9344 C.3     1  UNL1        0.1243
     27 C          58.7392   89.6355    7.0471 C.3     1  UNL1        0.1058
     28 N          60.5237   92.0295    3.6804 N.3     1  UNL1       -0.2655
     29 C          61.3690   91.0416    4.4284 C.3     1  UNL1        0.0900
     30 C          60.7741   90.2436    5.5507 C.3     1  UNL1        0.0899
     31 N          59.3340   90.4335    5.9249 N.3     1  UNL1       -0.2661
     32 C          58.4887   91.4215    5.1768 C.3     1  UNL1        0.0899
     33 C          59.0836   92.2194    4.0546 C.3     1  UNL1        0.0900
     34 C          62.4715   92.2612    2.8726 C.3     1  UNL1        0.0253
     35 C          61.1185   92.8275    2.5582 C.3     1  UNL1        0.1145
     36 C          59.7656   93.3938    2.2437 C.3     1  UNL1        0.0253
     37 C          61.7134   93.6254    1.4360 C.2     1  UNL1        0.2321
     38 N          63.1651   93.4692    1.0919 N.am    1  UNL1       -0.3278
     39 O          60.8568   94.5796    0.6578 O.2     1  UNL1       -0.2740
     40 H          63.7274   92.8429    1.6027 H       1  UNL1        0.1450
     41 H          63.5555   93.9929    0.3554 H       1  UNL1        0.1450
@<TRIPOS>BOND
     1    34    35    1
     2    35    36    1
     3    35    37    1
     4    37    38   am
     5    37    39    2
     6    35    28    1
     7    28    29    1
     8    29    30    1
     9    30    31    1
    10    31    27    1
    11    27     1    1
    12     1     2   ar
    13     2     3   ar
    14     3     4   ar
    15     4     5   ar
    16     5    10    1
    17    10    11    2
    18    11    12    1
    19    12    19    1
    20    19    20    3
    21    12    13    2
    22    13    14    1
    23    14    15    2
    24    15    16    1
    25    16    17    2
    26    17    18    1
    27     5     6   ar
    28     6     7   ar
    29     7    21    1
    30    21    22    1
    31    22    23    1
    32    23    24    1
    33    24    25    1
    34    25    26    1
    35     7     8   ar
    36     8     9   ar
    37    31    32    1
    38    32    33    1
    39    33    28    1
    40     9     1   ar
    41     8     3   ar
    42    18    10    1
    43    26    21    1
    44    18    14    1
    45    38    40    1
    46    38    41    1
