@<TRIPOS>MOLECULE
*****
 34 38 0 0 0
SMALL
GASTEIGER

@<TRIPOS>ATOM
      1 C          63.0357   86.3672   12.7423 C.2     1  UNL1        0.2506
      2 O          63.6690   87.1725   13.8379 O.2     1  UNL1       -0.2699
      3 N          62.3936   87.0602   11.5772 N.am    1  UNL1       -0.2724
      4 C          61.7603   86.2549   10.4815 C.3     1  UNL1        0.1231
      5 C          61.1183   86.9479    9.3165 C.3     1  UNL1        0.1351
      6 C          60.4850   86.1427    8.2208 C.3     1  UNL1        0.0339
      7 O          61.1095   88.4464    9.2470 O.3     1  UNL1       -0.3527
      8 C          61.7428   89.2516   10.3426 C.3     1  UNL1        0.1621
      9 C          62.3849   88.5586   11.5077 C.3     1  UNL1        0.1096
     10 C          63.3126   81.7537   10.3674 C.3     1  UNL1        0.0307
     11 C          63.1829   82.5621   11.6244 C.ar    1  UNL1       -0.0255
     12 C          63.1742   84.0605   11.5549 C.ar    1  UNL1        0.0015
     13 C          63.0444   84.8688   12.8117 C.ar    1  UNL1        0.0726
     14 C          62.9234   84.1787   14.1381 C.ar    1  UNL1        0.1069
     15 C          62.9321   82.6804   14.2076 C.ar    1  UNL1        0.0165
     16 C          63.0619   81.8721   12.9507 C.ar    1  UNL1       -0.0242
     17 C          63.0706   80.3737   13.0202 C.3     1  UNL1        0.0307
     18 N          62.7937   84.9871   15.3950 N.ar    1  UNL1       -0.1477
     19 N          63.9237   85.5868   16.1782 N.ar    1  UNL1       -0.1447
     20 C          63.3396   86.3081   17.3566 C.ar    1  UNL1        0.1446
     21 C          61.8485   86.1541   17.3017 C.ar    1  UNL1        0.1446
     22 N          61.5111   85.3378   16.0893 N.ar    1  UNL1       -0.1447
     23 C          63.0182   89.3639   12.6034 C.3     1  UNL1        0.0488
     24 C          63.9129   90.5191   12.2640 C.ar    1  UNL1       -0.0189
     25 C          63.7524   91.2324   10.9542 C.ar    1  UNL1       -0.0041
     26 C          64.6471   92.3875   10.6148 C.ar    1  UNL1        0.0013
     27 C          65.7023   92.8293   11.5852 C.ar    1  UNL1        0.0209
     28 C          65.8627   92.1160   12.8949 C.ar    1  UNL1        0.1026
     29 C          64.9680   90.9608   13.2343 C.ar    1  UNL1        0.0167
     30 N          66.9178   92.5578   13.8652 N.ar    1  UNL1       -0.1478
     31 N          66.7144   93.4832   15.0281 N.ar    1  UNL1       -0.1447
     32 C          68.0324   93.6491   15.7246 C.ar    1  UNL1        0.1446
     33 C          69.0505   92.8261   14.9922 C.ar    1  UNL1        0.1446
     34 N          68.3616   92.1517   13.8431 N.ar    1  UNL1       -0.1447
@<TRIPOS>BOND
     1    10    11    1
     2    11    12   ar
     3    12    13   ar
     4    13     1    1
     5     1     2    2
     6     1     3   am
     7     3     4    1
     8     4     5    1
     9     5     6    1
    10     5     7    1
    11     7     8    1
    12     8     9    1
    13     9    23    1
    14    23    24    1
    15    24    25   ar
    16    25    26   ar
    17    26    27   ar
    18    27    28   ar
    19    28    30    1
    20    30    31   ar
    21    31    32   ar
    22    32    33   ar
    23    33    34   ar
    24    28    29   ar
    25    13    14   ar
    26    14    18    1
    27    18    19   ar
    28    19    20   ar
    29    20    21   ar
    30    21    22   ar
    31    14    15   ar
    32    15    16   ar
    33    16    17    1
    34    16    11   ar
    35     9     3    1
    36    29    24   ar
    37    22    18   ar
    38    34    30   ar
@<TRIPOS>MOLECULE
*****
 34 38 0 0 0
SMALL
GASTEIGER

@<TRIPOS>ATOM
      1 C          62.6992   88.5520   11.6093 C.2     1  UNL1        0.2506
      2 O          62.6708   90.0515   11.5884 O.2     1  UNL1       -0.2699
      3 N          63.3499   87.8299   12.7518 N.am    1  UNL1       -0.2724
      4 C          63.3782   86.3303   12.7726 C.3     1  UNL1        0.1231
      5 C          64.0289   85.6083   13.9151 C.3     1  UNL1        0.1351
      6 C          64.0573   84.1087   13.9360 C.3     1  UNL1        0.0339
      7 O          64.6511   86.3859   15.0369 O.3     1  UNL1       -0.3527
      8 C          64.6227   87.8855   15.0160 C.3     1  UNL1        0.1621
      9 C          63.9721   88.6075   13.8735 C.3     1  UNL1        0.1096
     10 C          63.0898   84.9987    7.8380 C.3     1  UNL1        0.0307
     11 C          62.2723   85.9978    8.6020 C.ar    1  UNL1       -0.0255
     12 C          62.8945   86.7753    9.7236 C.ar    1  UNL1        0.0015
     13 C          62.0770   87.7743   10.4875 C.ar    1  UNL1        0.0726
     14 C          60.6372   87.9958   10.1298 C.ar    1  UNL1        0.1069
     15 C          60.0150   87.2182    9.0081 C.ar    1  UNL1        0.0165
     16 C          60.8325   86.2192    8.2442 C.ar    1  UNL1       -0.0242
     17 C          60.2102   85.4416    7.1225 C.3     1  UNL1        0.0307
     18 N          59.8197   88.9949   10.8937 N.ar    1  UNL1       -0.1477
     19 N          59.6103   90.4326   10.5207 N.ar    1  UNL1       -0.1447
     20 C          58.7293   91.0579   11.5612 C.ar    1  UNL1        0.1446
     21 C          58.3941   90.0066   12.5773 C.ar    1  UNL1        0.1446
     22 N          59.0680   88.7316   12.1648 N.ar    1  UNL1       -0.1447
     23 C          63.9437   90.1071   13.8527 C.3     1  UNL1        0.0488
     24 C          65.2268   90.8806   13.7794 C.ar    1  UNL1       -0.0189
     25 C          66.1711   90.8790   14.9448 C.ar    1  UNL1       -0.0041
     26 C          67.4542   91.6525   14.8715 C.ar    1  UNL1        0.0013
     27 C          67.7930   92.4276   13.6327 C.ar    1  UNL1        0.0209
     28 C          66.8487   92.4291   12.4673 C.ar    1  UNL1        0.1026
     29 C          65.5655   91.6556   12.5406 C.ar    1  UNL1        0.0167
     30 N          67.1874   93.2042   11.2285 N.ar    1  UNL1       -0.1478
     31 N          66.8725   94.6494   10.9790 N.ar    1  UNL1       -0.1447
     32 C          67.3910   95.0085    9.6180 C.ar    1  UNL1        0.1446
     33 C          68.0265   93.7852    9.0265 C.ar    1  UNL1        0.1446
     34 N          67.9006   92.6701   10.0219 N.ar    1  UNL1       -0.1447
@<TRIPOS>BOND
     1    10    11    1
     2    11    12   ar
     3    12    13   ar
     4    13     1    1
     5     1     2    2
     6     1     3   am
     7     3     4    1
     8     4     5    1
     9     5     6    1
    10     5     7    1
    11     7     8    1
    12     8     9    1
    13     9    23    1
    14    23    24    1
    15    24    25   ar
    16    25    26   ar
    17    26    27   ar
    18    27    28   ar
    19    28    30    1
    20    30    31   ar
    21    31    32   ar
    22    32    33   ar
    23    33    34   ar
    24    28    29   ar
    25    13    14   ar
    26    14    18    1
    27    18    19   ar
    28    19    20   ar
    29    20    21   ar
    30    21    22   ar
    31    14    15   ar
    32    15    16   ar
    33    16    17    1
    34    16    11   ar
    35     9     3    1
    36    29    24   ar
    37    22    18   ar
    38    34    30   ar
@<TRIPOS>MOLECULE
*****
 34 38 0 0 0
SMALL
GASTEIGER

@<TRIPOS>ATOM
      1 C          63.4465   87.9729   13.2437 C.2     1  UNL1        0.2506
      2 O          63.6833   89.0348   12.2111 O.2     1  UNL1       -0.2699
      3 N          63.3647   88.3430   14.6950 N.am    1  UNL1       -0.2724
      4 C          63.1279   87.2810   15.7276 C.3     1  UNL1        0.1231
      5 C          63.0461   87.6510   17.1789 C.3     1  UNL1        0.1351
      6 C          62.8093   86.5891   18.2115 C.3     1  UNL1        0.0339
      7 O          63.2012   89.0831   17.5977 O.3     1  UNL1       -0.3527
      8 C          63.4380   90.1450   16.5651 C.3     1  UNL1        0.1621
      9 C          63.5198   89.7749   15.1138 C.3     1  UNL1        0.1096
     10 C          64.6264   82.9504   13.8623 C.3     1  UNL1        0.0307
     11 C          63.8813   84.0297   13.1342 C.ar    1  UNL1       -0.0255
     12 C          64.0364   85.4617   13.5530 C.ar    1  UNL1        0.0015
     13 C          63.2914   86.5409   12.8249 C.ar    1  UNL1        0.0726
     14 C          62.3912   86.1881   11.6781 C.ar    1  UNL1        0.1069
     15 C          62.2361   84.7562   11.2593 C.ar    1  UNL1        0.0165
     16 C          62.9812   83.6770   11.9874 C.ar    1  UNL1       -0.0242
     17 C          62.8261   82.2449   11.5686 C.3     1  UNL1        0.0307
     18 N          61.6461   87.2674   10.9500 N.ar    1  UNL1       -0.1477
     19 N          60.4469   88.0097   11.4610 N.ar    1  UNL1       -0.1447
     20 C          60.0290   88.9949   10.4100 C.ar    1  UNL1        0.1446
     21 C          60.9700   88.8616    9.2494 C.ar    1  UNL1        0.1446
     22 N          61.9693   87.7939    9.5832 N.ar    1  UNL1       -0.1447
     23 C          63.7566   90.8369   14.0812 C.3     1  UNL1        0.0488
     24 C          65.1402   91.3721   13.8594 C.ar    1  UNL1       -0.0189
     25 C          66.2023   91.1582   14.8968 C.ar    1  UNL1       -0.0041
     26 C          67.5859   91.6934   14.6750 C.ar    1  UNL1        0.0013
     27 C          67.9075   92.4424   13.4158 C.ar    1  UNL1        0.0209
     28 C          66.8454   92.6563   12.3784 C.ar    1  UNL1        0.1026
     29 C          65.4617   92.1211   12.6002 C.ar    1  UNL1        0.0167
     30 N          67.1669   93.4053   11.1192 N.ar    1  UNL1       -0.1478
     31 N          67.8910   92.8549    9.9264 N.ar    1  UNL1       -0.1447
     32 C          67.9924   93.9456    8.9017 C.ar    1  UNL1        0.1446
     33 C          67.3308   95.1702    9.4613 C.ar    1  UNL1        0.1446
     34 N          66.8206   94.8362   10.8317 N.ar    1  UNL1       -0.1447
@<TRIPOS>BOND
     1    10    11    1
     2    11    12   ar
     3    12    13   ar
     4    13     1    1
     5     1     2    2
     6     1     3   am
     7     3     4    1
     8     4     5    1
     9     5     6    1
    10     5     7    1
    11     7     8    1
    12     8     9    1
    13     9    23    1
    14    23    24    1
    15    24    25   ar
    16    25    26   ar
    17    26    27   ar
    18    27    28   ar
    19    28    30    1
    20    30    31   ar
    21    31    32   ar
    22    32    33   ar
    23    33    34   ar
    24    28    29   ar
    25    13    14   ar
    26    14    18    1
    27    18    19   ar
    28    19    20   ar
    29    20    21   ar
    30    21    22   ar
    31    14    15   ar
    32    15    16   ar
    33    16    17    1
    34    16    11   ar
    35     9     3    1
    36    29    24   ar
    37    22    18   ar
    38    34    30   ar
@<TRIPOS>MOLECULE
*****
 34 38 0 0 0
SMALL
GASTEIGER

@<TRIPOS>ATOM
      1 C          63.3639   87.0213   13.1917 C.2     1  UNL1        0.2506
      2 O          63.9304   87.6504   14.4299 O.2     1  UNL1       -0.2699
      3 N          62.7948   87.8845   12.1049 N.am    1  UNL1       -0.2724
      4 C          62.2283   87.2552   10.8666 C.3     1  UNL1        0.1231
      5 C          61.6592   88.1184    9.7799 C.3     1  UNL1        0.1351
      6 C          61.0927   87.4893    8.5417 C.3     1  UNL1        0.0339
      7 O          61.6566   89.6108    9.9314 O.3     1  UNL1       -0.3527
      8 C          62.2231   90.2399   11.1696 C.3     1  UNL1        0.1621
      9 C          62.7922   89.3768   12.2564 C.3     1  UNL1        0.1096
     10 C          63.8494   82.8029   10.1966 C.3     1  UNL1        0.0307
     11 C          63.6092   83.4198   11.5427 C.ar    1  UNL1       -0.0255
     12 C          63.6066   84.9121   11.6942 C.ar    1  UNL1        0.0015
     13 C          63.3665   85.5289   13.0402 C.ar    1  UNL1        0.0726
     14 C          63.1288   84.6534   14.2348 C.ar    1  UNL1        0.1069
     15 C          63.1314   83.1611   14.0833 C.ar    1  UNL1        0.0165
     16 C          63.3716   82.5443   12.7373 C.ar    1  UNL1       -0.0242
     17 C          63.3741   81.0519   12.5858 C.3     1  UNL1        0.0307
     18 N          62.8887   85.2703   15.5809 N.ar    1  UNL1       -0.1477
     19 N          63.9452   85.7329   16.5399 N.ar    1  UNL1       -0.1447
     20 C          63.2594   86.2814   17.7559 C.ar    1  UNL1        0.1446
     21 C          61.7789   86.1577   17.5485 C.ar    1  UNL1        0.1446
     22 N          61.5498   85.5328   16.2042 N.ar    1  UNL1       -0.1447
     23 C          63.3587   90.0060   13.4946 C.3     1  UNL1        0.0488
     24 C          64.6390   90.7841   13.4220 C.ar    1  UNL1       -0.0189
     25 C          65.6644   90.6440   14.5078 C.ar    1  UNL1       -0.0041
     26 C          66.9447   91.4221   14.4352 C.ar    1  UNL1        0.0013
     27 C          67.1997   92.3403   13.2768 C.ar    1  UNL1        0.0209
     28 C          66.1743   92.4804   12.1910 C.ar    1  UNL1        0.1026
     29 C          64.8940   91.7022   12.2636 C.ar    1  UNL1        0.0167
     30 N          66.4293   93.3986   11.0326 N.ar    1  UNL1       -0.1478
     31 N          65.6295   94.6181   10.6816 N.ar    1  UNL1       -0.1447
     32 C          66.2347   95.2317    9.4539 C.ar    1  UNL1        0.1446
     33 C          67.4085   94.3914    9.0462 C.ar    1  UNL1        0.1446
     34 N          67.5287   93.2585   10.0219 N.ar    1  UNL1       -0.1447
@<TRIPOS>BOND
     1    10    11    1
     2    11    12   ar
     3    12    13   ar
     4    13     1    1
     5     1     2    2
     6     1     3   am
     7     3     4    1
     8     4     5    1
     9     5     6    1
    10     5     7    1
    11     7     8    1
    12     8     9    1
    13     9    23    1
    14    23    24    1
    15    24    25   ar
    16    25    26   ar
    17    26    27   ar
    18    27    28   ar
    19    28    30    1
    20    30    31   ar
    21    31    32   ar
    22    32    33   ar
    23    33    34   ar
    24    28    29   ar
    25    13    14   ar
    26    14    18    1
    27    18    19   ar
    28    19    20   ar
    29    20    21   ar
    30    21    22   ar
    31    14    15   ar
    32    15    16   ar
    33    16    17    1
    34    16    11   ar
    35     9     3    1
    36    29    24   ar
    37    22    18   ar
    38    34    30   ar
@<TRIPOS>MOLECULE
*****
 34 38 0 0 0
SMALL
GASTEIGER

@<TRIPOS>ATOM
      1 C          62.7884   88.3160   11.1220 C.2     1  UNL1        0.2506
      2 O          63.0909   89.7724   10.9282 O.2     1  UNL1       -0.2699
      3 N          63.2306   87.6183   12.3741 N.am    1  UNL1       -0.2724
      4 C          62.9280   86.1619   12.5679 C.3     1  UNL1        0.1231
      5 C          63.3702   85.4642   13.8200 C.3     1  UNL1        0.1351
      6 C          63.0677   84.0079   14.0138 C.3     1  UNL1        0.0339
      7 O          64.1150   86.2229   14.8782 O.3     1  UNL1       -0.3527
      8 C          64.4175   87.6792   14.6844 C.3     1  UNL1        0.1621
      9 C          63.9753   88.3769   13.4323 C.3     1  UNL1        0.1096
     10 C          62.7478   84.8189    7.2790 C.3     1  UNL1        0.0307
     11 C          62.0234   85.8089    8.1423 C.ar    1  UNL1       -0.0255
     12 C          62.7681   86.5675    9.2005 C.ar    1  UNL1        0.0015
     13 C          62.0436   87.5574   10.0638 C.ar    1  UNL1        0.0726
     14 C          60.5745   87.7887    9.8688 C.ar    1  UNL1        0.1069
     15 C          59.8297   87.0300    8.8106 C.ar    1  UNL1        0.0165
     16 C          60.5542   86.0401    7.9474 C.ar    1  UNL1       -0.0242
     17 C          59.8094   85.2815    6.8891 C.3     1  UNL1        0.0307
     18 N          59.8500   88.7786   10.7321 N.ar    1  UNL1       -0.1477
     19 N          59.6834   90.2417   10.4465 N.ar    1  UNL1       -0.1447
     20 C          58.8955   90.8467   11.5704 C.ar    1  UNL1        0.1446
     21 C          58.5750   89.7573   12.5507 C.ar    1  UNL1        0.1446
     22 N          59.1650   88.4793   12.0325 N.ar    1  UNL1       -0.1447
     23 C          64.2778   89.8333   13.2385 C.3     1  UNL1        0.0488
     24 C          64.6617   90.6825   14.4139 C.ar    1  UNL1       -0.0189
     25 C          63.7073   90.8550   15.5582 C.ar    1  UNL1       -0.0041
     26 C          64.0912   91.7041   16.7335 C.ar    1  UNL1        0.0013
     27 C          65.4296   92.3808   16.7647 C.ar    1  UNL1        0.0209
     28 C          66.3840   92.2083   15.6205 C.ar    1  UNL1        0.1026
     29 C          66.0000   91.3591   14.4450 C.ar    1  UNL1        0.0167
     30 N          67.7223   92.8849   15.6516 N.ar    1  UNL1       -0.1478
     31 N          68.0223   94.2176   16.2713 N.ar    1  UNL1       -0.1447
     32 C          69.4810   94.5040   16.0712 C.ar    1  UNL1        0.1446
     33 C          70.0826   93.3483   15.3278 C.ar    1  UNL1        0.1446
     34 N          68.9956   92.3477   15.0684 N.ar    1  UNL1       -0.1447
@<TRIPOS>BOND
     1    10    11    1
     2    11    12   ar
     3    12    13   ar
     4    13     1    1
     5     1     2    2
     6     1     3   am
     7     3     4    1
     8     4     5    1
     9     5     6    1
    10     5     7    1
    11     7     8    1
    12     8     9    1
    13     9    23    1
    14    23    24    1
    15    24    25   ar
    16    25    26   ar
    17    26    27   ar
    18    27    28   ar
    19    28    30    1
    20    30    31   ar
    21    31    32   ar
    22    32    33   ar
    23    33    34   ar
    24    28    29   ar
    25    13    14   ar
    26    14    18    1
    27    18    19   ar
    28    19    20   ar
    29    20    21   ar
    30    21    22   ar
    31    14    15   ar
    32    15    16   ar
    33    16    17    1
    34    16    11   ar
    35     9     3    1
    36    29    24   ar
    37    22    18   ar
    38    34    30   ar
