@<TRIPOS>MOLECULE
*****
 41 46 0 0 0
SMALL
GASTEIGER

@<TRIPOS>ATOM
      1 N          65.7299   94.7528   11.4613 N.3     1  UNL1       -0.2676
      2 C          66.6512   94.5463   12.6268 C.3     1  UNL1        0.0746
      3 C          66.6563   93.2354   13.3557 C.3     1  UNL1        0.0449
      4 C          65.7401   92.1309   12.9190 C.3     1  UNL1        0.1391
      5 C          64.8188   92.3373   11.7534 C.3     1  UNL1        0.0449
      6 C          64.8137   93.6483   11.0246 C.3     1  UNL1        0.0746
      7 C          64.8849   90.9408   12.5990 C.2     1  UNL1        0.2529
      8 O          63.8744   90.8528   11.4940 O.2     1  UNL1       -0.2724
      9 N          65.2176   89.8541   13.5781 N.am    1  UNL1       -0.1907
     10 C          66.2785   90.3726   14.5032 C.2     1  UNL1        0.3220
     11 O          66.9061   89.6168   15.6366 O.2     1  UNL1       -0.2512
     12 N          66.6014   91.7797   14.0959 N.am    1  UNL1       -0.2212
     13 C          64.5982   88.4888   13.6240 C.ar    1  UNL1        0.0622
     14 C          63.6005   88.0823   12.5804 C.ar    1  UNL1        0.0154
     15 C          62.9811   86.7170   12.6263 C.ar    1  UNL1        0.0013
     16 C          63.3594   85.7581   13.7159 C.ar    1  UNL1        0.0001
     17 C          64.3571   86.1645   14.7596 C.ar    1  UNL1        0.0013
     18 C          64.9765   87.5299   14.7137 C.ar    1  UNL1        0.0154
     19 C          62.7400   84.3927   13.7618 C.ar    1  UNL1        0.0000
     20 C          62.7038   83.5436   12.5258 C.ar    1  UNL1        0.0000
     21 C          62.0844   82.1782   12.5717 C.ar    1  UNL1        0.0011
     22 C          61.5011   81.6619   13.8537 C.ar    1  UNL1        0.0140
     23 C          61.5373   82.5111   15.0897 C.ar    1  UNL1        0.0011
     24 C          62.1568   83.8765   15.0437 C.ar    1  UNL1        0.0000
     25 C          60.8817   80.2966   13.8996 C.2     1  UNL1        0.0729
     26 O          59.4990   80.1186   14.4531 O.co2   1  UNL1       -0.5446
     27 O          61.6450   79.1093   13.3920 O.co2   1  UNL1       -0.5446
     28 C          67.6087   92.6779   14.7504 C.ar    1  UNL1        0.1583
     29 C          67.1743   93.6431   15.8132 C.ar    1  UNL1        0.1335
     30 N          68.1817   94.5413   16.4677 N.ar    1  UNL1       -0.2378
     31 C          69.6236   94.4744   16.0594 C.ar    1  UNL1        0.1196
     32 C          70.0580   93.5091   14.9966 C.ar    1  UNL1        0.1210
     33 N          69.0506   92.6109   14.3421 N.ar    1  UNL1       -0.2255
     34 C          65.7248   96.0638   10.7324 C.3     1  UNL1        0.1183
     35 C          67.9579   94.6349    9.3283 C.3     1  UNL1        0.0323
     36 C          66.9239   95.3752    8.5328 C.ar    1  UNL1       -0.0069
     37 C          67.0065   95.4011    7.0354 C.ar    1  UNL1       -0.0015
     38 C          65.9725   96.1414    6.2399 C.ar    1  UNL1        0.0203
     39 C          64.8560   96.8559    6.9418 C.ar    1  UNL1        0.0985
     40 N          64.7734   96.8300    8.4394 N.ar    1  UNL1       -0.2471
     41 C          65.8073   96.0897    9.2349 C.ar    1  UNL1        0.0712
@<TRIPOS>UNITY_ATOM_ATTR
26 1
charge -1
@<TRIPOS>BOND
     1    35    36    1
     2    36    37   ar
     3    37    38   ar
     4    38    39   ar
     5    39    40   ar
     6    40    41   ar
     7    41    34    1
     8    34     1    1
     9     1     2    1
    10     2     3    1
    11     3     4    1
    12     4     5    1
    13     5     6    1
    14     4     7    1
    15     7     8    2
    16     7     9   am
    17     9    13    1
    18    13    14   ar
    19    14    15   ar
    20    15    16   ar
    21    16    19    1
    22    19    20   ar
    23    20    21   ar
    24    21    22   ar
    25    22    25    1
    26    25    26   ar
    27    25    27   ar
    28    22    23   ar
    29    23    24   ar
    30    16    17   ar
    31    17    18   ar
    32     9    10   am
    33    10    11    2
    34    10    12   am
    35    12    28    1
    36    28    29   ar
    37    29    30   ar
    38    30    31   ar
    39    31    32   ar
    40    32    33   ar
    41    41    36   ar
    42     6     1    1
    43    18    13   ar
    44    33    28   ar
    45    12     4    1
    46    24    19   ar
@<TRIPOS>MOLECULE
*****
 41 46 0 0 0
SMALL
GASTEIGER

@<TRIPOS>ATOM
      1 N          61.7440   85.1431   10.7196 N.3     1  UNL1       -0.2676
      2 C          61.1817   86.2037   11.6189 C.3     1  UNL1        0.0746
      3 C          60.6901   87.4963   11.0379 C.3     1  UNL1        0.0449
      4 C          60.7608   87.7281    9.5576 C.3     1  UNL1        0.1391
      5 C          61.3231   86.6675    8.6583 C.3     1  UNL1        0.0449
      6 C          61.8147   85.3749    9.2393 C.3     1  UNL1        0.0746
      7 C          60.7675   88.1008    8.1046 C.2     1  UNL1        0.2529
      8 O          61.2670   87.2462    6.9775 O.2     1  UNL1       -0.2724
      9 N          60.1869   89.4780    7.9766 N.am    1  UNL1       -0.1907
     10 C          59.8215   89.9565    9.3505 C.2     1  UNL1        0.3220
     11 O          59.2089   91.2834    9.6880 O.2     1  UNL1       -0.2512
     12 N          60.1761   88.8751   10.3276 N.am    1  UNL1       -0.2212
     13 C          60.0040   90.2424    6.6990 C.ar    1  UNL1        0.0622
     14 C          58.6252   90.6049    6.2328 C.ar    1  UNL1        0.0154
     15 C          58.4423   91.3693    4.9552 C.ar    1  UNL1        0.0013
     16 C          59.6381   91.7713    4.1439 C.ar    1  UNL1        0.0001
     17 C          61.0170   91.4088    4.6102 C.ar    1  UNL1        0.0013
     18 C          61.1999   90.6444    5.8877 C.ar    1  UNL1        0.0154
     19 C          59.4552   92.5357    2.8664 C.ar    1  UNL1        0.0000
     20 C          58.5151   92.0252    1.8149 C.ar    1  UNL1        0.0000
     21 C          58.3322   92.7896    0.5374 C.ar    1  UNL1        0.0011
     22 C          59.0893   94.0647    0.3112 C.ar    1  UNL1        0.0140
     23 C          60.0294   94.5752    1.3627 C.ar    1  UNL1        0.0011
     24 C          60.2123   93.8107    2.6403 C.ar    1  UNL1        0.0000
     25 C          58.9064   94.8291   -0.9663 C.2     1  UNL1        0.0729
     26 O          59.9472   94.7495   -2.0435 O.co2   1  UNL1       -0.5446
     27 O          57.6826   95.6731   -1.1667 O.co2   1  UNL1       -0.5446
     28 C          59.9805   88.9307   11.8137 C.ar    1  UNL1        0.1583
     29 C          61.0827   89.4357   12.6969 C.ar    1  UNL1        0.1335
     30 N          60.8870   89.4913   14.1830 N.ar    1  UNL1       -0.2378
     31 C          59.5891   89.0419   14.7860 C.ar    1  UNL1        0.1196
     32 C          58.4869   88.5369   13.9028 C.ar    1  UNL1        0.1210
     33 N          58.6826   88.4813   12.4167 N.ar    1  UNL1       -0.2255
     34 C          62.2357   83.8505   11.3006 C.3     1  UNL1        0.1183
     35 C          61.9441   81.4698   13.1027 C.3     1  UNL1        0.0323
     36 C          62.7615   82.6480   13.5429 C.ar    1  UNL1       -0.0069
     37 C          63.4330   82.6359   14.8841 C.ar    1  UNL1       -0.0015
     38 C          64.2504   83.8141   15.3242 C.ar    1  UNL1        0.0203
     39 C          64.3963   85.0044   14.4232 C.ar    1  UNL1        0.0985
     40 N          63.7247   85.0166   13.0819 N.ar    1  UNL1       -0.2471
     41 C          62.9073   83.8384   12.6418 C.ar    1  UNL1        0.0712
@<TRIPOS>UNITY_ATOM_ATTR
26 1
charge -1
@<TRIPOS>BOND
     1    35    36    1
     2    36    37   ar
     3    37    38   ar
     4    38    39   ar
     5    39    40   ar
     6    40    41   ar
     7    41    34    1
     8    34     1    1
     9     1     2    1
    10     2     3    1
    11     3     4    1
    12     4     5    1
    13     5     6    1
    14     4     7    1
    15     7     8    2
    16     7     9   am
    17     9    13    1
    18    13    14   ar
    19    14    15   ar
    20    15    16   ar
    21    16    19    1
    22    19    20   ar
    23    20    21   ar
    24    21    22   ar
    25    22    25    1
    26    25    26   ar
    27    25    27   ar
    28    22    23   ar
    29    23    24   ar
    30    16    17   ar
    31    17    18   ar
    32     9    10   am
    33    10    11    2
    34    10    12   am
    35    12    28    1
    36    28    29   ar
    37    29    30   ar
    38    30    31   ar
    39    31    32   ar
    40    32    33   ar
    41    41    36   ar
    42     6     1    1
    43    18    13   ar
    44    33    28   ar
    45    12     4    1
    46    24    19   ar
