@<TRIPOS>MOLECULE
*****
 25 28 0 0 0
SMALL
GASTEIGER

@<TRIPOS>ATOM
      1 C          64.4248   89.8955   14.3043 C.ar    1  UNL1        0.1213
      2 N          65.3557   91.0020   14.7031 N.ar    1  UNL1       -0.2309
      3 C          65.5009   91.9298   13.5334 C.ar    1  UNL1        0.0983
      4 C          66.2904   93.1912   13.3448 C.ar    1  UNL1        0.0206
      5 C          66.2386   93.9194   12.0346 C.ar    1  UNL1        0.0016
      6 C          65.3974   93.3864   10.9129 C.ar    1  UNL1        0.0016
      7 C          64.6079   92.1250   11.1015 C.ar    1  UNL1        0.0188
      8 C          64.6597   91.3967   12.4118 C.ar    1  UNL1        0.0787
      9 N          63.9946   90.1394   12.8882 N.ar    1  UNL1       -0.3110
     10 C          64.1687   84.7817   15.1900 C.3     1  UNL1        0.0896
     11 N          63.8708   86.1899   15.6126 N.3     1  UNL1       -0.2711
     12 C          63.1470   86.4492   16.9005 C.3     1  UNL1        0.0722
     13 C          62.8491   87.8572   17.3231 C.3     1  UNL1        0.0178
     14 C          63.2751   89.0060   16.4577 C.3     1  UNL1        0.0103
     15 C          63.9989   88.7467   15.1697 C.3     1  UNL1        0.0729
     16 C          64.2967   87.3386   14.7472 C.3     1  UNL1        0.0796
     17 C          63.0629   89.2775   12.0888 C.3     1  UNL1        0.1544
     18 C          61.7873   89.8523   11.5484 C.3     1  UNL1        0.2298
     19 O          61.5669   89.9270   10.0665 O.3     1  UNL1       -0.4734
     20 C          60.9567   88.7655    9.3395 C.ar    1  UNL1        0.1386
     21 C          61.4317   87.3709    9.6215 C.ar    1  UNL1        0.0369
     22 C          60.8215   86.2093    8.8945 C.ar    1  UNL1        0.0031
     23 C          59.7364   86.4424    7.8854 C.ar    1  UNL1        0.0002
     24 C          59.2615   87.8369    7.6034 C.ar    1  UNL1        0.0031
     25 C          59.8716   88.9985    8.3304 C.ar    1  UNL1        0.0369
@<TRIPOS>BOND
     1    10    11    1
     2    11    12    1
     3    12    13    1
     4    13    14    1
     5    14    15    1
     6    15     1    1
     7     1     2   ar
     8     2     3   ar
     9     3     4   ar
    10     4     5   ar
    11     5     6   ar
    12     6     7   ar
    13     7     8   ar
    14     8     9   ar
    15     9    17    1
    16    17    18    1
    17    18    19    1
    18    19    20    1
    19    20    21   ar
    20    21    22   ar
    21    22    23   ar
    22    23    24   ar
    23    24    25   ar
    24    15    16    1
    25    16    11    1
    26     9     1   ar
    27    25    20   ar
    28     8     3   ar
@<TRIPOS>MOLECULE
*****
 25 28 0 0 0
SMALL
GASTEIGER

@<TRIPOS>ATOM
      1 C          62.4171   89.3287   11.0279 C.ar    1  UNL1        0.1213
      2 N          61.5806   90.0586   10.0191 N.ar    1  UNL1       -0.2309
      3 C          60.8028   89.0411    9.2384 C.ar    1  UNL1        0.0983
      4 C          59.8166   89.1763    8.1163 C.ar    1  UNL1        0.0206
      5 C          59.1861   87.9526    7.5205 C.ar    1  UNL1        0.0016
      6 C          59.5418   86.5938    8.0467 C.ar    1  UNL1        0.0016
      7 C          60.5280   86.4585    9.1688 C.ar    1  UNL1        0.0188
      8 C          61.1585   87.6822    9.7646 C.ar    1  UNL1        0.0787
      9 N          62.1562   87.8600   10.8706 N.ar    1  UNL1       -0.3110
     10 C          65.6827   93.1525   12.3374 C.3     1  UNL1        0.0896
     11 N          64.9833   91.8690   12.6745 N.3     1  UNL1       -0.2711
     12 C          65.2173   91.2140   14.0035 C.3     1  UNL1        0.0722
     13 C          64.5180   89.9306   14.3406 C.3     1  UNL1        0.0178
     14 C          63.5845   89.3021   13.3487 C.3     1  UNL1        0.0103
     15 C          63.3505   89.9571   12.0197 C.3     1  UNL1        0.0729
     16 C          64.0499   91.2405   11.6827 C.3     1  UNL1        0.0796
     17 C          62.7829   86.7618   11.6775 C.3     1  UNL1        0.1544
     18 C          62.2246   85.3711   11.6127 C.3     1  UNL1        0.2298
     19 O          63.1490   84.1972   11.4805 O.3     1  UNL1       -0.4734
     20 C          62.8454   82.9184   12.2034 C.ar    1  UNL1        0.1386
     21 C          62.3650   82.9556   13.6239 C.ar    1  UNL1        0.0369
     22 C          62.0615   81.6769   14.3468 C.ar    1  UNL1        0.0031
     23 C          62.2383   80.3608   13.6492 C.ar    1  UNL1        0.0002
     24 C          62.7187   80.3235   12.2287 C.ar    1  UNL1        0.0031
     25 C          63.0222   81.6023   11.5058 C.ar    1  UNL1        0.0369
@<TRIPOS>BOND
     1    10    11    1
     2    11    12    1
     3    12    13    1
     4    13    14    1
     5    14    15    1
     6    15     1    1
     7     1     2   ar
     8     2     3   ar
     9     3     4   ar
    10     4     5   ar
    11     5     6   ar
    12     6     7   ar
    13     7     8   ar
    14     8     9   ar
    15     9    17    1
    16    17    18    1
    17    18    19    1
    18    19    20    1
    19    20    21   ar
    20    21    22   ar
    21    22    23   ar
    22    23    24   ar
    23    24    25   ar
    24    15    16    1
    25    16    11    1
    26     9     1   ar
    27    25    20   ar
    28     8     3   ar
@<TRIPOS>MOLECULE
*****
 25 28 0 0 0
SMALL
GASTEIGER

@<TRIPOS>ATOM
      1 C          62.1504   88.0901   10.5805 C.ar    1  UNL1        0.1213
      2 N          62.4835   89.5526   10.5857 N.ar    1  UNL1       -0.2309
      3 C          63.2431   89.8506   11.8444 C.ar    1  UNL1        0.0983
      4 C          63.8282   91.1208   12.3867 C.ar    1  UNL1        0.0206
      5 C          64.5496   91.1127   13.7018 C.ar    1  UNL1        0.0016
      6 C          64.6859   89.8343   14.4745 C.ar    1  UNL1        0.0016
      7 C          64.1008   88.5641   13.9322 C.ar    1  UNL1        0.0188
      8 C          63.3794   88.5722   12.6172 C.ar    1  UNL1        0.0787
      9 N          62.7041   87.4842   11.8360 N.ar    1  UNL1       -0.3110
     10 C          62.0689   84.6807    6.6601 C.3     1  UNL1        0.0896
     11 N          61.3552   85.6568    7.5479 N.3     1  UNL1       -0.2711
     12 C          59.8874   85.9041    7.3634 C.3     1  UNL1        0.0722
     13 C          59.1738   86.8800    8.2512 C.3     1  UNL1        0.0178
     14 C          59.9282   87.6087    9.3236 C.3     1  UNL1        0.0103
     15 C          61.3960   87.3614    9.5082 C.3     1  UNL1        0.0729
     16 C          62.1096   86.3854    8.6203 C.3     1  UNL1        0.0796
     17 C          62.6006   86.0432   12.2396 C.3     1  UNL1        0.1544
     18 C          63.5701   85.4703   13.2305 C.3     1  UNL1        0.2298
     19 O          64.2176   84.1435   12.9653 O.3     1  UNL1       -0.4734
     20 C          63.4305   82.8778   13.1339 C.ar    1  UNL1        0.1386
     21 C          62.4325   82.7579   14.2473 C.ar    1  UNL1        0.0369
     22 C          61.6454   81.4922   14.4159 C.ar    1  UNL1        0.0031
     23 C          61.8562   80.3463   13.4711 C.ar    1  UNL1        0.0002
     24 C          62.8542   80.4663   12.3577 C.ar    1  UNL1        0.0031
     25 C          63.6413   81.7320   12.1891 C.ar    1  UNL1        0.0369
@<TRIPOS>BOND
     1    10    11    1
     2    11    12    1
     3    12    13    1
     4    13    14    1
     5    14    15    1
     6    15     1    1
     7     1     2   ar
     8     2     3   ar
     9     3     4   ar
    10     4     5   ar
    11     5     6   ar
    12     6     7   ar
    13     7     8   ar
    14     8     9   ar
    15     9    17    1
    16    17    18    1
    17    18    19    1
    18    19    20    1
    19    20    21   ar
    20    21    22   ar
    21    22    23   ar
    22    23    24   ar
    23    24    25   ar
    24    15    16    1
    25    16    11    1
    26     9     1   ar
    27    25    20   ar
    28     8     3   ar
@<TRIPOS>MOLECULE
*****
 25 28 0 0 0
SMALL
GASTEIGER

@<TRIPOS>ATOM
      1 C          63.4743   90.2831   12.4751 C.ar    1  UNL1        0.1213
      2 N          64.0901   91.4546   11.7692 N.ar    1  UNL1       -0.2309
      3 C          65.0577   92.1073   12.7114 C.ar    1  UNL1        0.0983
      4 C          65.9526   93.3018   12.5627 C.ar    1  UNL1        0.0206
      5 C          66.8298   93.7282   13.7023 C.ar    1  UNL1        0.0016
      6 C          66.8121   92.9600   14.9905 C.ar    1  UNL1        0.0016
      7 C          65.9171   91.7655   15.1392 C.ar    1  UNL1        0.0188
      8 C          65.0399   91.3391   13.9996 C.ar    1  UNL1        0.0787
      9 N          64.0614   90.2117   13.8536 N.ar    1  UNL1       -0.3110
     10 C          62.0472   85.4872   11.0739 C.3     1  UNL1        0.0896
     11 N          61.7376   86.9493   11.2024 N.3     1  UNL1       -0.2711
     12 C          60.4048   87.4755   10.7587 C.3     1  UNL1        0.0722
     13 C          60.0952   88.9376   10.8872 C.3     1  UNL1        0.0178
     14 C          61.1184   89.8734   11.4593 C.3     1  UNL1        0.0103
     15 C          62.4511   89.3472   11.9030 C.3     1  UNL1        0.0729
     16 C          62.7607   87.8852   11.7745 C.3     1  UNL1        0.0796
     17 C          63.7283   89.1920   14.9020 C.3     1  UNL1        0.1544
     18 C          64.3587   87.8318   14.8524 C.3     1  UNL1        0.2298
     19 O          63.7680   86.7021   15.6428 O.3     1  UNL1       -0.4734
     20 C          63.6285   85.3442   15.0210 C.ar    1  UNL1        0.1386
     21 C          62.5690   84.4011   15.5088 C.ar    1  UNL1        0.0369
     22 C          62.4295   83.0432   14.8870 C.ar    1  UNL1        0.0031
     23 C          63.3495   82.6284   13.7773 C.ar    1  UNL1        0.0002
     24 C          64.4089   83.5715   13.2894 C.ar    1  UNL1        0.0031
     25 C          64.5485   84.9294   13.9112 C.ar    1  UNL1        0.0369
@<TRIPOS>BOND
     1    10    11    1
     2    11    12    1
     3    12    13    1
     4    13    14    1
     5    14    15    1
     6    15     1    1
     7     1     2   ar
     8     2     3   ar
     9     3     4   ar
    10     4     5   ar
    11     5     6   ar
    12     6     7   ar
    13     7     8   ar
    14     8     9   ar
    15     9    17    1
    16    17    18    1
    17    18    19    1
    18    19    20    1
    19    20    21   ar
    20    21    22   ar
    21    22    23   ar
    22    23    24   ar
    23    24    25   ar
    24    15    16    1
    25    16    11    1
    26     9     1   ar
    27    25    20   ar
    28     8     3   ar
@<TRIPOS>MOLECULE
*****
 25 28 0 0 0
SMALL
GASTEIGER

@<TRIPOS>ATOM
      1 C          61.9663   85.7532   10.4298 C.ar    1  UNL1        0.1213
      2 N          61.0445   85.4104    9.2973 N.ar    1  UNL1       -0.2309
      3 C          60.4918   86.6911    8.7455 C.ar    1  UNL1        0.0983
      4 C          59.5352   86.9708    7.6245 C.ar    1  UNL1        0.0206
      5 C          59.1588   88.3849    7.2951 C.ar    1  UNL1        0.0016
      6 C          59.7391   89.5193    8.0867 C.ar    1  UNL1        0.0016
      7 C          60.6957   89.2395    9.2076 C.ar    1  UNL1        0.0188
      8 C          61.0721   87.8254    9.5370 C.ar    1  UNL1        0.0787
      9 N          61.9833   87.2458   10.5780 N.ar    1  UNL1       -0.3110
     10 C          63.2005   83.8118   15.0890 C.3     1  UNL1        0.0896
     11 N          63.3531   83.8045   13.5967 N.3     1  UNL1       -0.2711
     12 C          64.2752   82.8192   12.9419 C.3     1  UNL1        0.0722
     13 C          64.4278   82.8120   11.4498 C.3     1  UNL1        0.0178
     14 C          63.6581   83.7900   10.6124 C.3     1  UNL1        0.0103
     15 C          62.7360   84.7752   11.2672 C.3     1  UNL1        0.0729
     16 C          62.5834   84.7825   12.7594 C.3     1  UNL1        0.0796
     17 C          62.7730   88.0224   11.5896 C.3     1  UNL1        0.1544
     18 C          62.2202   89.2972   12.1545 C.3     1  UNL1        0.2298
     19 O          62.7750   89.8541   13.4321 O.3     1  UNL1       -0.4734
     20 C          64.0369   90.6647   13.4114 C.ar    1  UNL1        0.1386
     21 C          65.0237   90.5451   14.5347 C.ar    1  UNL1        0.0369
     22 C          66.2857   91.3556   14.5140 C.ar    1  UNL1        0.0031
     23 C          66.5609   92.2859   13.3699 C.ar    1  UNL1        0.0002
     24 C          65.5741   92.4055   12.2466 C.ar    1  UNL1        0.0031
     25 C          64.3121   91.5950   12.2673 C.ar    1  UNL1        0.0369
@<TRIPOS>BOND
     1    10    11    1
     2    11    12    1
     3    12    13    1
     4    13    14    1
     5    14    15    1
     6    15     1    1
     7     1     2   ar
     8     2     3   ar
     9     3     4   ar
    10     4     5   ar
    11     5     6   ar
    12     6     7   ar
    13     7     8   ar
    14     8     9   ar
    15     9    17    1
    16    17    18    1
    17    18    19    1
    18    19    20    1
    19    20    21   ar
    20    21    22   ar
    21    22    23   ar
    22    23    24   ar
    23    24    25   ar
    24    15    16    1
    25    16    11    1
    26     9     1   ar
    27    25    20   ar
    28     8     3   ar
@<TRIPOS>MOLECULE
*****
 25 28 0 0 0
SMALL
GASTEIGER

@<TRIPOS>ATOM
      1 C          63.5031   89.6697   12.9531 C.ar    1  UNL1        0.1213
      2 N          62.7987   90.0879   11.6965 N.ar    1  UNL1       -0.2309
      3 C          62.3431   88.8479   10.9859 C.ar    1  UNL1        0.0983
      4 C          61.5979   88.6444    9.7002 C.ar    1  UNL1        0.0206
      5 C          61.2755   87.2564    9.2319 C.ar    1  UNL1        0.0016
      6 C          61.6983   86.0718   10.0492 C.ar    1  UNL1        0.0016
      7 C          62.4436   86.2754   11.3350 C.ar    1  UNL1        0.0188
      8 C          62.7660   87.6634   11.8033 C.ar    1  UNL1        0.0787
      9 N          63.4829   88.1713   13.0191 N.ar    1  UNL1       -0.3110
     10 C          66.8641   93.4497   14.1427 C.3     1  UNL1        0.0896
     11 N          65.8000   92.4786   14.5607 N.3     1  UNL1       -0.2711
     12 C          65.3523   92.4264   15.9913 C.3     1  UNL1        0.0722
     13 C          64.2882   91.4554   16.4093 C.3     1  UNL1        0.0178
     14 C          63.6718   90.5365   15.3965 C.3     1  UNL1        0.0103
     15 C          64.1195   90.5886   13.9659 C.3     1  UNL1        0.0729
     16 C          65.1836   91.5597   13.5479 C.3     1  UNL1        0.0796
     17 C          64.0755   87.3287   14.1094 C.3     1  UNL1        0.1544
     18 C          64.1552   85.8397   13.9473 C.3     1  UNL1        0.2298
     19 O          63.0409   84.9698   14.4490 O.3     1  UNL1       -0.4734
     20 C          62.8767   83.5782   13.9137 C.ar    1  UNL1        0.1386
     21 C          63.5705   83.1753   12.6464 C.ar    1  UNL1        0.0369
     22 C          63.4062   81.7837   12.1112 C.ar    1  UNL1        0.0031
     23 C          62.5481   80.7950   12.8433 C.ar    1  UNL1        0.0002
     24 C          61.8543   81.1979   14.1107 C.ar    1  UNL1        0.0031
     25 C          62.0185   82.5895   14.6459 C.ar    1  UNL1        0.0369
@<TRIPOS>BOND
     1    10    11    1
     2    11    12    1
     3    12    13    1
     4    13    14    1
     5    14    15    1
     6    15     1    1
     7     1     2   ar
     8     2     3   ar
     9     3     4   ar
    10     4     5   ar
    11     5     6   ar
    12     6     7   ar
    13     7     8   ar
    14     8     9   ar
    15     9    17    1
    16    17    18    1
    17    18    19    1
    18    19    20    1
    19    20    21   ar
    20    21    22   ar
    21    22    23   ar
    22    23    24   ar
    23    24    25   ar
    24    15    16    1
    25    16    11    1
    26     9     1   ar
    27    25    20   ar
    28     8     3   ar
@<TRIPOS>MOLECULE
*****
 25 28 0 0 0
SMALL
GASTEIGER

@<TRIPOS>ATOM
      1 C          62.1672   89.2308   11.2837 C.ar    1  UNL1        0.1213
      2 N          61.2593   89.9240   10.3114 N.ar    1  UNL1       -0.2309
      3 C          60.7011   88.8894    9.3798 C.ar    1  UNL1        0.0983
      4 C          59.7529   88.9886    8.2218 C.ar    1  UNL1        0.0206
      5 C          59.3677   87.7551    7.4602 C.ar    1  UNL1        0.0016
      6 C          59.9305   86.4225    7.8566 C.ar    1  UNL1        0.0016
      7 C          60.8786   86.3233    9.0147 C.ar    1  UNL1        0.0188
      8 C          61.2639   87.5567    9.7763 C.ar    1  UNL1        0.0787
      9 N          62.1700   87.7677   10.9530 N.ar    1  UNL1       -0.3110
     10 C          63.1188   89.8343   16.3562 C.3     1  UNL1        0.0896
     11 N          63.4129   90.1875   14.9283 N.3     1  UNL1       -0.2711
     12 C          64.4768   91.1954   14.6088 C.3     1  UNL1        0.0722
     13 C          64.7708   91.5485   13.1809 C.3     1  UNL1        0.0178
     14 C          64.0009   90.8937   12.0725 C.3     1  UNL1        0.0103
     15 C          62.9370   89.8857   12.3920 C.3     1  UNL1        0.0729
     16 C          62.6430   89.5326   13.8199 C.3     1  UNL1        0.0796
     17 C          62.9432   86.7026   11.6725 C.3     1  UNL1        0.1544
     18 C          62.2187   85.5730   12.3425 C.3     1  UNL1        0.2298
     19 O          62.9602   84.6441   13.2575 O.3     1  UNL1       -0.4734
     20 C          62.7452   83.1630   13.1575 C.ar    1  UNL1        0.1386
     21 C          63.1565   82.4274   11.9167 C.ar    1  UNL1        0.0369
     22 C          62.9415   80.9463   11.8167 C.ar    1  UNL1        0.0031
     23 C          62.3153   80.2006   12.9577 C.ar    1  UNL1        0.0002
     24 C          61.9040   80.9362   14.1985 C.ar    1  UNL1        0.0031
     25 C          62.1190   82.4173   14.2985 C.ar    1  UNL1        0.0369
@<TRIPOS>BOND
     1    10    11    1
     2    11    12    1
     3    12    13    1
     4    13    14    1
     5    14    15    1
     6    15     1    1
     7     1     2   ar
     8     2     3   ar
     9     3     4   ar
    10     4     5   ar
    11     5     6   ar
    12     6     7   ar
    13     7     8   ar
    14     8     9   ar
    15     9    17    1
    16    17    18    1
    17    18    19    1
    18    19    20    1
    19    20    21   ar
    20    21    22   ar
    21    22    23   ar
    22    23    24   ar
    23    24    25   ar
    24    15    16    1
    25    16    11    1
    26     9     1   ar
    27    25    20   ar
    28     8     3   ar
@<TRIPOS>MOLECULE
*****
 25 28 0 0 0
SMALL
GASTEIGER

@<TRIPOS>ATOM
      1 C          62.9698   84.3491   14.6893 C.ar    1  UNL1        0.1213
      2 N          62.8340   82.9610   15.2414 N.ar    1  UNL1       -0.2309
      3 C          62.7995   82.0041   14.0868 C.ar    1  UNL1        0.0983
      4 C          62.6787   80.5103   14.0245 C.ar    1  UNL1        0.0206
      5 C          62.6723   79.8132   12.6964 C.ar    1  UNL1        0.0016
      6 C          62.7868   80.6099   11.4306 C.ar    1  UNL1        0.0016
      7 C          62.9077   82.1037   11.4929 C.ar    1  UNL1        0.0188
      8 C          62.9140   82.8008   12.8210 C.ar    1  UNL1        0.0787
      9 N          63.0193   84.2500   13.1934 N.ar    1  UNL1       -0.3110
     10 C          64.2670   89.3660   15.0735 C.3     1  UNL1        0.0896
     11 N          63.6918   88.1225   15.6842 N.3     1  UNL1       -0.2711
     12 C          63.1902   88.1440   17.0976 C.3     1  UNL1        0.0722
     13 C          62.6150   86.9005   17.7083 C.3     1  UNL1        0.0178
     14 C          62.5416   85.6355   16.9055 C.3     1  UNL1        0.0103
     15 C          63.0433   85.6141   15.4920 C.3     1  UNL1        0.0729
     16 C          63.6184   86.8575   14.8814 C.3     1  UNL1        0.0796
     17 C          63.1509   85.3986   12.2376 C.3     1  UNL1        0.1544
     18 C          61.9520   85.8828   11.4773 C.3     1  UNL1        0.2298
     19 O          62.0010   87.1982   10.7580 O.3     1  UNL1       -0.4734
     20 C          61.0552   87.4696    9.6259 C.ar    1  UNL1        0.1386
     21 C          60.4205   86.3279    8.8886 C.ar    1  UNL1        0.0369
     22 C          59.4746   86.5993    7.7565 C.ar    1  UNL1        0.0031
     23 C          59.1634   88.0125    7.3616 C.ar    1  UNL1        0.0002
     24 C          59.7981   89.1543    8.0989 C.ar    1  UNL1        0.0031
     25 C          60.7440   88.8828    9.2310 C.ar    1  UNL1        0.0369
@<TRIPOS>BOND
     1    10    11    1
     2    11    12    1
     3    12    13    1
     4    13    14    1
     5    14    15    1
     6    15     1    1
     7     1     2   ar
     8     2     3   ar
     9     3     4   ar
    10     4     5   ar
    11     5     6   ar
    12     6     7   ar
    13     7     8   ar
    14     8     9   ar
    15     9    17    1
    16    17    18    1
    17    18    19    1
    18    19    20    1
    19    20    21   ar
    20    21    22   ar
    21    22    23   ar
    22    23    24   ar
    23    24    25   ar
    24    15    16    1
    25    16    11    1
    26     9     1   ar
    27    25    20   ar
    28     8     3   ar
@<TRIPOS>MOLECULE
*****
 25 28 0 0 0
SMALL
GASTEIGER

@<TRIPOS>ATOM
      1 C          61.8332   88.8191   10.4066 C.ar    1  UNL1        0.1213
      2 N          62.3753   90.2101   10.5523 N.ar    1  UNL1       -0.2309
      3 C          63.2119   90.2537   11.7965 C.ar    1  UNL1        0.0983
      4 C          63.9933   91.3593   12.4424 C.ar    1  UNL1        0.0206
      5 C          64.7497   91.1007   13.7116 C.ar    1  UNL1        0.0016
      6 C          64.7248   89.7365   14.3349 C.ar    1  UNL1        0.0016
      7 C          63.9435   88.6310   13.6890 C.ar    1  UNL1        0.0188
      8 C          63.1870   88.8896   12.4198 C.ar    1  UNL1        0.0787
      9 N          62.3350   88.0030   11.5608 N.ar    1  UNL1       -0.3110
     10 C          58.8316   89.7974    6.2795 C.3     1  UNL1        0.0896
     11 N          59.4446   88.8192    7.2373 N.3     1  UNL1       -0.2711
     12 C          59.1697   87.3521    7.0895 C.3     1  UNL1        0.0722
     13 C          59.7827   86.3739    8.0473 C.3     1  UNL1        0.0178
     14 C          60.6705   86.8630    9.1530 C.3     1  UNL1        0.0103
     15 C          60.9454   88.3301    9.3009 C.3     1  UNL1        0.0729
     16 C          60.3324   89.3082    8.3431 C.3     1  UNL1        0.0796
     17 C          62.0369   86.5545   11.8120 C.3     1  UNL1        0.1544
     18 C          63.1084   85.6495   12.3438 C.3     1  UNL1        0.2298
     19 O          62.8222   84.7548   13.5133 O.3     1  UNL1       -0.4734
     20 C          62.6896   83.2745   13.3103 C.ar    1  UNL1        0.1386
     21 C          63.1496   82.6492   12.0268 C.ar    1  UNL1        0.0369
     22 C          63.0170   81.1690   11.8239 C.ar    1  UNL1        0.0031
     23 C          62.4243   80.3139   12.9045 C.ar    1  UNL1        0.0002
     24 C          61.9644   80.9392   14.1880 C.ar    1  UNL1        0.0031
     25 C          62.0970   82.4195   14.3909 C.ar    1  UNL1        0.0369
@<TRIPOS>BOND
     1    10    11    1
     2    11    12    1
     3    12    13    1
     4    13    14    1
     5    14    15    1
     6    15     1    1
     7     1     2   ar
     8     2     3   ar
     9     3     4   ar
    10     4     5   ar
    11     5     6   ar
    12     6     7   ar
    13     7     8   ar
    14     8     9   ar
    15     9    17    1
    16    17    18    1
    17    18    19    1
    18    19    20    1
    19    20    21   ar
    20    21    22   ar
    21    22    23   ar
    22    23    24   ar
    23    24    25   ar
    24    15    16    1
    25    16    11    1
    26     9     1   ar
    27    25    20   ar
    28     8     3   ar
