@<TRIPOS>MOLECULE
*****
 32 36 0 0 0
SMALL
GASTEIGER

@<TRIPOS>ATOM
      1 C          62.3383   89.1988   12.1192 C.3     1  UNL1        0.1211
      2 C          61.5201   89.8411   11.0385 C.3     1  UNL1        0.0804
      3 N          61.0141   89.0177    9.8914 N.3     1  UNL1       -0.2969
      4 C          61.3264   87.5520    9.8249 C.3     1  UNL1        0.0714
      5 C          62.1446   86.9098   10.9056 C.3     1  UNL1        0.0490
      6 C          62.6506   87.7332   12.0527 C.3     1  UNL1        0.1224
      7 O          63.2221   88.4249   13.2549 O.3     1  UNL1       -0.3492
      8 C          63.9658   87.4057   14.0662 C.3     1  UNL1        0.1687
      9 C          63.8540   86.0841   13.3655 C.ar    1  UNL1        0.0079
     10 C          64.3872   84.7226   13.6998 C.ar    1  UNL1        0.0299
     11 C          64.1077   83.5634   12.7897 C.ar    1  UNL1        0.1671
     12 F          64.6409   82.2019   13.1240 F       1  UNL1       -0.2018
     13 C          63.2949   83.7658   11.5454 C.ar    1  UNL1        0.1671
     14 F          63.0153   82.6066   10.6354 F       1  UNL1       -0.2018
     15 C          62.7616   85.1274   11.2111 C.ar    1  UNL1        0.0297
     16 C          63.0411   86.2865   12.1211 C.ar    1  UNL1        0.0033
     17 H          61.3881   89.4373    9.0402 H       1  UNL1        0.1233
     18 O          62.4692   89.6597   14.6727 O.2     1  UNL1       -0.2747
     19 C          62.8444   90.0222   13.2664 C.2     1  UNL1        0.2294
     20 N          63.7255   91.2081   13.0072 N.am    1  UNL1       -0.2769
     21 C          64.1007   91.5706   11.6008 C.3     1  UNL1        0.0758
     22 C          65.0807   92.1556   10.6274 C.3     1  UNL1        0.0215
     23 C          63.7705   91.6135   10.1382 C.3     1  UNL1        0.0215
     24 C          64.2316   92.0315   14.1543 C.3     1  UNL1        0.1209
     25 C          65.6998   92.0712   14.4588 C.ar    1  UNL1        0.0091
     26 C          66.6984   91.7905   13.3753 C.ar    1  UNL1        0.0096
     27 C          68.1666   91.8302   13.6798 C.ar    1  UNL1        0.0575
     28 CL         69.1652   91.5494   12.5963 Cl      1  UNL1       -0.0823
     29 C          68.6363   92.1507   15.0678 C.ar    1  UNL1        0.0122
     30 C          67.6377   92.4315   16.1514 C.ar    1  UNL1        0.0120
     31 C          66.1695   92.3918   15.8469 C.ar    1  UNL1        0.0553
     32 CL         65.1709   92.6726   16.9304 Cl      1  UNL1       -0.0825
@<TRIPOS>BOND
     1    18    19    2
     2     1    19    1
     3     1     2    1
     4     2     3    1
     5     3     4    1
     6     4     5    1
     7     6     5    1
     8     6     7    1
     9     7     8    1
    10     8     9    1
    11     9    10   ar
    12    10    11   ar
    13    11    12    1
    14    11    13   ar
    15    13    14    1
    16    13    15   ar
    17    15    16   ar
    18    19    20   am
    19    20    24    1
    20    24    25    1
    21    25    26   ar
    22    26    27   ar
    23    27    28    1
    24    27    29   ar
    25    29    30   ar
    26    30    31   ar
    27    31    32    1
    28    20    21    1
    29    21    22    1
    30    22    23    1
    31     6     1    1
    32    16     9   ar
    33    31    25   ar
    34    23    21    1
    35    16     6    1
    36     3    17    1
@<TRIPOS>MOLECULE
*****
 32 36 0 0 0
SMALL
GASTEIGER

@<TRIPOS>ATOM
      1 C          62.8086   87.3685   11.5257 C.3     1  UNL1        0.1211
      2 C          62.3511   87.8990   10.1993 C.3     1  UNL1        0.0804
      3 N          61.9599   86.9493    9.1062 N.3     1  UNL1       -0.2969
      4 C          62.0263   85.4690    9.3395 C.3     1  UNL1        0.0714
      5 C          62.4838   84.9385   10.6658 C.3     1  UNL1        0.0490
      6 C          62.8749   85.8882   11.7589 C.3     1  UNL1        0.1224
      7 O          63.2956   86.7114   12.9402 O.3     1  UNL1       -0.3492
      8 C          63.6728   85.7734   14.0483 C.3     1  UNL1        0.1687
      9 C          63.4852   84.3703   13.5518 C.ar    1  UNL1        0.0079
     10 C          63.6997   83.0374   14.2053 C.ar    1  UNL1        0.0299
     11 C          63.4211   81.7753   13.4439 C.ar    1  UNL1        0.1671
     12 F          63.6356   80.4423   14.0974 F       1  UNL1       -0.2018
     13 C          62.9280   81.8463   12.0291 C.ar    1  UNL1        0.1671
     14 F          62.6494   80.5843   11.2677 F       1  UNL1       -0.2018
     15 C          62.7135   83.1794   11.3755 C.ar    1  UNL1        0.0297
     16 C          62.9921   84.4414   12.1369 C.ar    1  UNL1        0.0033
     17 H          62.5666   87.1495    8.3111 H       1  UNL1        0.1233
     18 O          64.4247   88.0506   13.4422 O.2     1  UNL1       -0.2747
     19 C          63.1998   88.3183   12.6188 C.2     1  UNL1        0.2294
     20 N          62.3661   89.5357   12.8886 N.am    1  UNL1       -0.2769
     21 C          61.1412   89.8034   12.0651 C.3     1  UNL1        0.0758
     22 C          59.6835   89.5769   11.7935 C.3     1  UNL1        0.0215
     23 C          60.4774   90.4935   10.9105 C.3     1  UNL1        0.0215
     24 C          62.7573   90.4855   13.9817 C.3     1  UNL1        0.1209
     25 C          64.0440   91.2503   13.8858 C.ar    1  UNL1        0.0091
     26 C          64.6127   91.5960   12.5416 C.ar    1  UNL1        0.0096
     27 C          65.8995   92.3609   12.4458 C.ar    1  UNL1        0.0575
     28 CL         66.4682   92.7066   11.1014 Cl      1  UNL1       -0.0823
     29 C          66.6176   92.7801   13.6942 C.ar    1  UNL1        0.0122
     30 C          66.0489   92.4344   15.0385 C.ar    1  UNL1        0.0120
     31 C          64.7621   91.6695   15.1344 C.ar    1  UNL1        0.0553
     32 CL         64.1935   91.3239   16.4786 Cl      1  UNL1       -0.0825
@<TRIPOS>BOND
     1    18    19    2
     2     1    19    1
     3     1     2    1
     4     2     3    1
     5     3     4    1
     6     4     5    1
     7     6     5    1
     8     6     7    1
     9     7     8    1
    10     8     9    1
    11     9    10   ar
    12    10    11   ar
    13    11    12    1
    14    11    13   ar
    15    13    14    1
    16    13    15   ar
    17    15    16   ar
    18    19    20   am
    19    20    24    1
    20    24    25    1
    21    25    26   ar
    22    26    27   ar
    23    27    28    1
    24    27    29   ar
    25    29    30   ar
    26    30    31   ar
    27    31    32    1
    28    20    21    1
    29    21    22    1
    30    22    23    1
    31     6     1    1
    32    16     9   ar
    33    31    25   ar
    34    23    21    1
    35    16     6    1
    36     3    17    1
@<TRIPOS>MOLECULE
*****
 32 36 0 0 0
SMALL
GASTEIGER

@<TRIPOS>ATOM
      1 C          63.2472   88.2005   12.5532 C.3     1  UNL1        0.1211
      2 C          63.7865   87.0526   13.3541 C.3     1  UNL1        0.0804
      3 N          63.4086   85.6457   12.9969 N.3     1  UNL1       -0.2969
      4 C          62.4913   85.3866   11.8387 C.3     1  UNL1        0.0714
      5 C          61.9519   86.5345   11.0378 C.3     1  UNL1        0.0490
      6 C          62.3298   87.9414   11.3950 C.3     1  UNL1        0.1224
      7 O          62.6178   89.3943   11.6321 O.3     1  UNL1       -0.3492
      8 C          61.8737   90.1888   10.6000 C.3     1  UNL1        0.1687
      9 C          61.1259   89.2269    9.7250 C.ar    1  UNL1        0.0079
     10 C          60.2247   89.4363    8.5444 C.ar    1  UNL1        0.0299
     11 C          59.6053   88.2567    7.8551 C.ar    1  UNL1        0.1671
     12 F          58.7042   88.4661    6.6745 F       1  UNL1       -0.2018
     13 C          59.8873   86.8678    8.3464 C.ar    1  UNL1        0.1671
     14 F          59.2680   85.6883    7.6571 F       1  UNL1       -0.2018
     15 C          60.7885   86.6584    9.5271 C.ar    1  UNL1        0.0297
     16 C          61.4078   87.8379   10.2164 C.ar    1  UNL1        0.0033
     17 H          62.9635   85.2421   13.8211 H       1  UNL1        0.1233
     18 O          63.8837   90.6126   11.8276 O.2     1  UNL1       -0.2747
     19 C          63.6251   89.6075   12.9105 C.2     1  UNL1        0.2294
     20 N          63.7443   90.0093   14.3508 N.am    1  UNL1       -0.2769
     21 C          63.4856   89.0041   15.4337 C.3     1  UNL1        0.0758
     22 C          62.8495   88.6390   16.7422 C.3     1  UNL1        0.0215
     23 C          63.6736   87.6283   16.0010 C.3     1  UNL1        0.0215
     24 C          64.1222   91.4162   14.7081 C.3     1  UNL1        0.1209
     25 C          65.5682   91.7985   14.8223 C.ar    1  UNL1        0.0091
     26 C          66.5060   91.5348   13.6818 C.ar    1  UNL1        0.0096
     27 C          67.9520   91.9170   13.7960 C.ar    1  UNL1        0.0575
     28 CL         68.8898   91.6532   12.6554 Cl      1  UNL1       -0.0823
     29 C          68.4601   92.5629   15.0508 C.ar    1  UNL1        0.0122
     30 C          67.5223   92.8266   16.1914 C.ar    1  UNL1        0.0120
     31 C          66.0763   92.4444   16.0772 C.ar    1  UNL1        0.0553
     32 CL         65.1384   92.7081   17.2177 Cl      1  UNL1       -0.0825
@<TRIPOS>BOND
     1    18    19    2
     2     1    19    1
     3     1     2    1
     4     2     3    1
     5     3     4    1
     6     4     5    1
     7     6     5    1
     8     6     7    1
     9     7     8    1
    10     8     9    1
    11     9    10   ar
    12    10    11   ar
    13    11    12    1
    14    11    13   ar
    15    13    14    1
    16    13    15   ar
    17    15    16   ar
    18    19    20   am
    19    20    24    1
    20    24    25    1
    21    25    26   ar
    22    26    27   ar
    23    27    28    1
    24    27    29   ar
    25    29    30   ar
    26    30    31   ar
    27    31    32    1
    28    20    21    1
    29    21    22    1
    30    22    23    1
    31     6     1    1
    32    16     9   ar
    33    31    25   ar
    34    23    21    1
    35    16     6    1
    36     3    17    1
@<TRIPOS>MOLECULE
*****
 32 36 0 0 0
SMALL
GASTEIGER

@<TRIPOS>ATOM
      1 C          60.4844   95.2938   -3.3105 C.3     1  UNL1        0.1211
      2 C          61.0303   96.0604   -4.4784 C.3     1  UNL1        0.0804
      3 N          60.4500   95.8568   -5.8465 N.3     1  UNL1       -0.2969
      4 C          59.3238   94.8865   -6.0467 C.3     1  UNL1        0.0714
      5 C          58.7778   94.1198   -4.8787 C.3     1  UNL1        0.0490
      6 C          59.3582   94.3234   -3.5107 C.3     1  UNL1        0.1224
      7 O          59.8344   94.4211   -2.0915 O.3     1  UNL1       -0.3492
      8 C          59.0107   93.4825   -1.2605 C.3     1  UNL1        0.1687
      9 C          58.0254   92.8047   -2.1660 C.ar    1  UNL1        0.0079
     10 C          56.9605   91.7815   -1.9039 C.ar    1  UNL1        0.0299
     11 C          56.1102   91.2779   -3.0324 C.ar    1  UNL1        0.1671
     12 F          55.0452   90.2546   -2.7703 F       1  UNL1       -0.2018
     13 C          56.3249   91.7976   -4.4230 C.ar    1  UNL1        0.1671
     14 F          55.4747   91.2941   -5.5515 F       1  UNL1       -0.2018
     15 C          57.3899   92.8209   -4.6852 C.ar    1  UNL1        0.0297
     16 C          58.2402   93.3245   -3.5567 C.ar    1  UNL1        0.0033
     17 H          61.2143   95.5489   -6.4477 H       1  UNL1        0.1233
     18 O          60.3332   96.3329   -0.9341 O.2     1  UNL1       -0.2747
     19 C          61.0647   95.4974   -1.9423 C.2     1  UNL1        0.2294
     20 N          62.3766   94.8654   -1.5825 N.am    1  UNL1       -0.2769
     21 C          63.1082   94.0298   -2.5908 C.3     1  UNL1        0.0758
     22 C          64.2550   93.8477   -3.5404 C.3     1  UNL1        0.0215
     23 C          63.2286   92.7646   -3.3876 C.3     1  UNL1        0.0215
     24 C          62.9570   95.0690   -0.2144 C.3     1  UNL1        0.1209
     25 C          62.7318   94.0427    0.8562 C.ar    1  UNL1        0.0091
     26 C          61.3818   93.9108    1.4967 C.ar    1  UNL1        0.0096
     27 C          61.1566   92.8846    2.5672 C.ar    1  UNL1        0.0575
     28 CL         59.8066   92.7528    3.2077 Cl      1  UNL1       -0.0823
     29 C          62.2813   91.9902    2.9973 C.ar    1  UNL1        0.0122
     30 C          63.6313   92.1220    2.3568 C.ar    1  UNL1        0.0120
     31 C          63.8566   93.1483    1.2862 C.ar    1  UNL1        0.0553
     32 CL         65.2065   93.2801    0.6458 Cl      1  UNL1       -0.0825
@<TRIPOS>BOND
     1    18    19    2
     2     1    19    1
     3     1     2    1
     4     2     3    1
     5     3     4    1
     6     4     5    1
     7     6     5    1
     8     6     7    1
     9     7     8    1
    10     8     9    1
    11     9    10   ar
    12    10    11   ar
    13    11    12    1
    14    11    13   ar
    15    13    14    1
    16    13    15   ar
    17    15    16   ar
    18    19    20   am
    19    20    24    1
    20    24    25    1
    21    25    26   ar
    22    26    27   ar
    23    27    28    1
    24    27    29   ar
    25    29    30   ar
    26    30    31   ar
    27    31    32    1
    28    20    21    1
    29    21    22    1
    30    22    23    1
    31     6     1    1
    32    16     9   ar
    33    31    25   ar
    34    23    21    1
    35    16     6    1
    36     3    17    1
@<TRIPOS>MOLECULE
*****
 32 36 0 0 0
SMALL
GASTEIGER

@<TRIPOS>ATOM
      1 C          62.7664   86.2577   10.5402 C.3     1  UNL1        0.1211
      2 C          62.8602   86.4785    9.0595 C.3     1  UNL1        0.0804
      3 N          62.9390   85.3041    8.1297 N.3     1  UNL1       -0.2969
      4 C          62.9238   83.9090    8.6804 C.3     1  UNL1        0.0714
      5 C          62.8299   83.6882   10.1611 C.3     1  UNL1        0.0490
      6 C          62.7512   84.8625   11.0910 C.3     1  UNL1        0.1224
      7 O          62.6663   85.9329   12.1384 O.3     1  UNL1       -0.3492
      8 C          62.5884   85.2646   13.4790 C.3     1  UNL1        0.1687
      9 C          62.6251   83.7810   13.2602 C.ar    1  UNL1        0.0079
     10 C          62.5799   82.6244   14.2140 C.ar    1  UNL1        0.0299
     11 C          62.6353   81.2191   13.6921 C.ar    1  UNL1        0.1671
     12 F          62.5901   80.0624   14.6459 F       1  UNL1       -0.2018
     13 C          62.7359   80.9707   12.2162 C.ar    1  UNL1        0.1671
     14 F          62.7914   79.5655   11.6943 F       1  UNL1       -0.2018
     15 C          62.7811   82.1274   11.2623 C.ar    1  UNL1        0.0297
     16 C          62.7257   83.5326   11.7842 C.ar    1  UNL1        0.0033
     17 H          63.8068   85.4033    7.6029 H       1  UNL1        0.1233
     18 O          63.6174   87.5231   12.6436 O.2     1  UNL1       -0.2747
     19 C          62.6876   87.4320   11.4701 C.2     1  UNL1        0.2294
     20 N          61.6791   88.5153   11.2265 N.am    1  UNL1       -0.2769
     21 C          60.7492   88.4242   10.0529 C.3     1  UNL1        0.0758
     22 C          59.6812   87.6923    9.2956 C.3     1  UNL1        0.0215
     23 C          60.2068   88.9982    8.7777 C.3     1  UNL1        0.0215
     24 C          61.6003   89.6896   12.1564 C.3     1  UNL1        0.1209
     25 C          62.8254   90.5089   12.4353 C.ar    1  UNL1        0.0091
     26 C          63.3719   90.5900   13.8298 C.ar    1  UNL1        0.0096
     27 C          64.5971   91.4093   14.1088 C.ar    1  UNL1        0.0575
     28 CL         65.1436   91.4904   15.5034 Cl      1  UNL1       -0.0823
     29 C          65.2757   92.1475   12.9932 C.ar    1  UNL1        0.0122
     30 C          64.7292   92.0664   11.5986 C.ar    1  UNL1        0.0120
     31 C          63.5040   91.2471   11.3197 C.ar    1  UNL1        0.0553
     32 CL         62.9575   91.1660    9.9252 Cl      1  UNL1       -0.0825
@<TRIPOS>BOND
     1    18    19    2
     2     1    19    1
     3     1     2    1
     4     2     3    1
     5     3     4    1
     6     4     5    1
     7     6     5    1
     8     6     7    1
     9     7     8    1
    10     8     9    1
    11     9    10   ar
    12    10    11   ar
    13    11    12    1
    14    11    13   ar
    15    13    14    1
    16    13    15   ar
    17    15    16   ar
    18    19    20   am
    19    20    24    1
    20    24    25    1
    21    25    26   ar
    22    26    27   ar
    23    27    28    1
    24    27    29   ar
    25    29    30   ar
    26    30    31   ar
    27    31    32    1
    28    20    21    1
    29    21    22    1
    30    22    23    1
    31     6     1    1
    32    16     9   ar
    33    31    25   ar
    34    23    21    1
    35    16     6    1
    36     3    17    1
@<TRIPOS>MOLECULE
*****
 32 36 0 0 0
SMALL
GASTEIGER

@<TRIPOS>ATOM
      1 C          63.8899   86.7619   13.5439 C.3     1  UNL1        0.1211
      2 C          64.5315   87.7552   14.4668 C.3     1  UNL1        0.0804
      3 N          64.2963   89.2233   14.2691 N.3     1  UNL1       -0.2969
      4 C          63.4195   89.6983   13.1485 C.3     1  UNL1        0.0714
      5 C          62.7779   88.7050   12.2256 C.3     1  UNL1        0.0490
      6 C          63.0131   87.2368   12.4233 C.3     1  UNL1        0.1224
      7 O          63.1554   85.7453   12.4965 O.3     1  UNL1       -0.3492
      8 C          62.3468   85.1473   11.3836 C.3     1  UNL1        0.1687
      9 C          61.7047   86.2692   10.6225 C.ar    1  UNL1        0.0079
     10 C          60.7984   86.2817    9.4275 C.ar    1  UNL1        0.0299
     11 C          60.3038   87.5856    8.8748 C.ar    1  UNL1        0.1671
     12 F          59.3974   87.5981    7.6798 F       1  UNL1       -0.2018
     13 C          60.7156   88.8769    9.5174 C.ar    1  UNL1        0.1671
     14 F          60.2210   90.1807    8.9648 F       1  UNL1       -0.2018
     15 C          61.6220   88.8644   10.7125 C.ar    1  UNL1        0.0297
     16 C          62.1166   87.5606   11.2651 C.ar    1  UNL1        0.0033
     17 H          65.2112   89.6519   14.1289 H       1  UNL1        0.1233
     18 O          64.8315   84.4982   12.6841 O.2     1  UNL1       -0.2747
     19 C          64.1251   85.2937   13.7415 C.2     1  UNL1        0.2294
     20 N          63.6539   84.6210   14.9967 N.am    1  UNL1       -0.2769
     21 C          62.9475   85.4165   16.0542 C.3     1  UNL1        0.0758
     22 C          62.9834   86.4357   17.1541 C.3     1  UNL1        0.0215
     23 C          61.6881   85.7751   16.7858 C.3     1  UNL1        0.0215
     24 C          63.8891   83.1528   15.1944 C.3     1  UNL1        0.1209
     25 C          63.1132   82.1537   14.3883 C.ar    1  UNL1        0.0091
     26 C          61.6996   81.8219   14.7645 C.ar    1  UNL1        0.0096
     27 C          60.9237   80.8228   13.9583 C.ar    1  UNL1        0.0575
     28 CL         59.5100   80.4910   14.3346 Cl      1  UNL1       -0.0823
     29 C          61.5614   80.1555   12.7760 C.ar    1  UNL1        0.0122
     30 C          62.9751   80.4873   12.3997 C.ar    1  UNL1        0.0120
     31 C          63.7510   81.4864   13.2059 C.ar    1  UNL1        0.0553
     32 CL         65.1646   81.8182   12.8296 Cl      1  UNL1       -0.0825
@<TRIPOS>BOND
     1    18    19    2
     2     1    19    1
     3     1     2    1
     4     2     3    1
     5     3     4    1
     6     4     5    1
     7     6     5    1
     8     6     7    1
     9     7     8    1
    10     8     9    1
    11     9    10   ar
    12    10    11   ar
    13    11    12    1
    14    11    13   ar
    15    13    14    1
    16    13    15   ar
    17    15    16   ar
    18    19    20   am
    19    20    24    1
    20    24    25    1
    21    25    26   ar
    22    26    27   ar
    23    27    28    1
    24    27    29   ar
    25    29    30   ar
    26    30    31   ar
    27    31    32    1
    28    20    21    1
    29    21    22    1
    30    22    23    1
    31     6     1    1
    32    16     9   ar
    33    31    25   ar
    34    23    21    1
    35    16     6    1
    36     3    17    1
@<TRIPOS>MOLECULE
*****
 32 36 0 0 0
SMALL
GASTEIGER

@<TRIPOS>ATOM
      1 C          61.6798   87.6290   10.8258 C.3     1  UNL1        0.1211
      2 C          60.8471   87.9116    9.6106 C.3     1  UNL1        0.0804
      3 N          60.8557   89.2805    8.9973 N.3     1  UNL1       -0.2969
      4 C          61.6970   90.3667    9.5993 C.3     1  UNL1        0.0714
      5 C          62.5297   90.0841   10.8145 C.3     1  UNL1        0.0490
      6 C          62.5211   88.7153   11.4277 C.3     1  UNL1        0.1224
      7 O          62.6136   87.4024   12.1474 O.3     1  UNL1       -0.3492
      8 C          63.5571   87.5716   13.3011 C.3     1  UNL1        0.1687
      9 C          64.0478   88.9891   13.2946 C.ar    1  UNL1        0.0079
     10 C          64.9949   89.7275   14.1932 C.ar    1  UNL1        0.0299
     11 C          65.3018   91.1728   13.9342 C.ar    1  UNL1        0.1671
     12 F          66.2489   91.9112   14.8328 F       1  UNL1       -0.2018
     13 C          64.6615   91.8796   12.7764 C.ar    1  UNL1        0.1671
     14 F          64.9683   93.3248   12.5173 F       1  UNL1       -0.2018
     15 C          63.7143   91.1412   11.8776 C.ar    1  UNL1        0.0297
     16 C          63.4075   89.6959   12.1367 C.ar    1  UNL1        0.0033
     17 H          59.8919   89.6142    9.0084 H       1  UNL1        0.1233
     18 O          61.1183   86.0600   12.8190 O.2     1  UNL1       -0.2747
     19 C          61.6712   86.2601   11.4391 C.2     1  UNL1        0.2294
     20 N          62.2156   85.0914   10.6725 N.am    1  UNL1       -0.2769
     21 C          62.7686   85.2916    9.2925 C.3     1  UNL1        0.0758
     22 C          63.7393   85.9629    8.3669 C.3     1  UNL1        0.0215
     23 C          62.7555   84.9670    7.8281 C.3     1  UNL1        0.0215
     24 C          62.2070   83.7226   11.2858 C.3     1  UNL1        0.1209
     25 C          62.9797   83.4597   12.5443 C.ar    1  UNL1        0.0091
     26 C          64.0631   84.4054   12.9706 C.ar    1  UNL1        0.0096
     27 C          64.8358   84.1426   14.2291 C.ar    1  UNL1        0.0575
     28 CL         65.9193   85.0883   14.6554 Cl      1  UNL1       -0.0823
     29 C          64.5249   82.9341   15.0615 C.ar    1  UNL1        0.0122
     30 C          63.4414   81.9883   14.6353 C.ar    1  UNL1        0.0120
     31 C          62.6687   82.2511   13.3767 C.ar    1  UNL1        0.0553
     32 CL         61.5853   81.3055   12.9505 Cl      1  UNL1       -0.0825
@<TRIPOS>BOND
     1    18    19    2
     2     1    19    1
     3     1     2    1
     4     2     3    1
     5     3     4    1
     6     4     5    1
     7     6     5    1
     8     6     7    1
     9     7     8    1
    10     8     9    1
    11     9    10   ar
    12    10    11   ar
    13    11    12    1
    14    11    13   ar
    15    13    14    1
    16    13    15   ar
    17    15    16   ar
    18    19    20   am
    19    20    24    1
    20    24    25    1
    21    25    26   ar
    22    26    27   ar
    23    27    28    1
    24    27    29   ar
    25    29    30   ar
    26    30    31   ar
    27    31    32    1
    28    20    21    1
    29    21    22    1
    30    22    23    1
    31     6     1    1
    32    16     9   ar
    33    31    25   ar
    34    23    21    1
    35    16     6    1
    36     3    17    1
@<TRIPOS>MOLECULE
*****
 32 36 0 0 0
SMALL
GASTEIGER

@<TRIPOS>ATOM
      1 C          62.0850   89.8407   12.9577 C.3     1  UNL1        0.1211
      2 C          61.7405   89.3133   14.3190 C.3     1  UNL1        0.0804
      3 N          62.6059   89.6531   15.4960 N.3     1  UNL1       -0.2969
      4 C          63.8158   90.5204   15.3118 C.3     1  UNL1        0.0714
      5 C          64.1603   91.0478   13.9505 C.3     1  UNL1        0.0490
      6 C          63.2949   90.7080   12.7735 C.3     1  UNL1        0.1224
      7 O          62.5280   90.4541   11.5095 O.3     1  UNL1       -0.3492
      8 C          63.2259   91.1711   10.3920 C.3     1  UNL1        0.1687
      9 C          64.4241   91.8681   10.9652 C.ar    1  UNL1        0.0079
     10 C          65.4818   92.7263   10.3371 C.ar    1  UNL1        0.0299
     11 C          66.5823   93.2984   11.1809 C.ar    1  UNL1        0.1671
     12 F          67.6400   94.1566   10.5528 F       1  UNL1       -0.2018
     13 C          66.6249   93.0122   12.6527 C.ar    1  UNL1        0.1671
     14 F          67.7252   93.5842   13.4964 F       1  UNL1       -0.2018
     15 C          65.5671   92.1539   13.2808 C.ar    1  UNL1        0.0297
     16 C          64.4667   91.5818   12.4371 C.ar    1  UNL1        0.0033
     17 H          62.9337   88.7692   15.8854 H       1  UNL1        0.1233
     18 O          60.3385   90.5499   11.1697 O.2     1  UNL1       -0.2747
     19 C          61.2195   89.5008   11.7806 C.2     1  UNL1        0.2294
     20 N          61.2352   88.1119   11.2144 N.am    1  UNL1       -0.2769
     21 C          62.1163   87.0628   11.8253 C.3     1  UNL1        0.0758
     22 C          63.3568   86.6868   12.5800 C.3     1  UNL1        0.0215
     23 C          62.4017   85.6218   12.1289 C.3     1  UNL1        0.0215
     24 C          60.3698   87.7720   10.0373 C.3     1  UNL1        0.1209
     25 C          60.8471   86.7818    9.0166 C.ar    1  UNL1        0.0091
     26 C          62.2076   86.1644    9.1495 C.ar    1  UNL1        0.0096
     27 C          62.6848   85.1742    8.1288 C.ar    1  UNL1        0.0575
     28 CL         64.0455   84.5568    8.2618 Cl      1  UNL1       -0.0823
     29 C          61.8015   84.8014    6.9753 C.ar    1  UNL1        0.0122
     30 C          60.4409   85.4188    6.8423 C.ar    1  UNL1        0.0120
     31 C          59.9637   86.4090    7.8630 C.ar    1  UNL1        0.0553
     32 CL         58.6031   87.0264    7.7301 Cl      1  UNL1       -0.0825
@<TRIPOS>BOND
     1    18    19    2
     2     1    19    1
     3     1     2    1
     4     2     3    1
     5     3     4    1
     6     4     5    1
     7     6     5    1
     8     6     7    1
     9     7     8    1
    10     8     9    1
    11     9    10   ar
    12    10    11   ar
    13    11    12    1
    14    11    13   ar
    15    13    14    1
    16    13    15   ar
    17    15    16   ar
    18    19    20   am
    19    20    24    1
    20    24    25    1
    21    25    26   ar
    22    26    27   ar
    23    27    28    1
    24    27    29   ar
    25    29    30   ar
    26    30    31   ar
    27    31    32    1
    28    20    21    1
    29    21    22    1
    30    22    23    1
    31     6     1    1
    32    16     9   ar
    33    31    25   ar
    34    23    21    1
    35    16     6    1
    36     3    17    1
@<TRIPOS>MOLECULE
*****
 32 36 0 0 0
SMALL
GASTEIGER

@<TRIPOS>ATOM
      1 C          63.0576   89.8705   12.4822 C.3     1  UNL1        0.1211
      2 C          63.1844   91.2416   13.0770 C.3     1  UNL1        0.0804
      3 N          63.5962   91.4022   14.5103 N.3     1  UNL1       -0.2969
      4 C          63.8813   90.1916   15.3489 C.3     1  UNL1        0.0714
      5 C          63.7545   88.8204   14.7541 C.3     1  UNL1        0.0490
      6 C          63.3427   88.6599   13.3208 C.3     1  UNL1        0.1224
      7 O          62.9426   88.3443   11.9099 O.3     1  UNL1       -0.3492
      8 C          62.9464   86.8529   11.7495 C.3     1  UNL1        0.1687
      9 C          63.3487   86.2466   13.0612 C.ar    1  UNL1        0.0079
     10 C          63.5237   84.8221   13.4969 C.ar    1  UNL1        0.0299
     11 C          63.9437   84.5141   14.9037 C.ar    1  UNL1        0.1671
     12 F          64.1186   83.0896   15.3393 F       1  UNL1       -0.2018
     13 C          64.1886   85.6309   15.8747 C.ar    1  UNL1        0.1671
     14 F          64.6085   85.3230   17.2814 F       1  UNL1       -0.2018
     15 C          64.0136   87.0556   15.4391 C.ar    1  UNL1        0.0297
     16 C          63.5937   87.3634   14.0323 C.ar    1  UNL1        0.0033
     17 H          62.8468   91.9135   14.9765 H       1  UNL1        0.1233
     18 O          63.6812   89.7338    9.9637 O.2     1  UNL1       -0.2747
     19 C          62.6458   89.7098   11.0488 C.2     1  UNL1        0.2294
     20 N          61.1985   89.5252   10.7004 N.am    1  UNL1       -0.2769
     21 C          60.1631   89.5013   11.7856 C.3     1  UNL1        0.0758
     22 C          59.6287   88.9146   13.0584 C.3     1  UNL1        0.0215
     23 C          58.9041   90.0464   12.3921 C.3     1  UNL1        0.0215
     24 C          60.7866   89.3646    9.2671 C.3     1  UNL1        0.1209
     25 C          60.8036   88.0070    8.6294 C.ar    1  UNL1        0.0091
     26 C          61.9315   87.0595    8.9125 C.ar    1  UNL1        0.0096
     27 C          61.9485   85.7019    8.2749 C.ar    1  UNL1        0.0575
     28 CL         63.0764   84.7544    8.5580 Cl      1  UNL1       -0.0823
     29 C          60.8377   85.2918    7.3541 C.ar    1  UNL1        0.0122
     30 C          59.7097   86.2393    7.0710 C.ar    1  UNL1        0.0120
     31 C          59.6927   87.5969    7.7087 C.ar    1  UNL1        0.0553
     32 CL         58.5649   88.5444    7.4256 Cl      1  UNL1       -0.0825
@<TRIPOS>BOND
     1    18    19    2
     2     1    19    1
     3     1     2    1
     4     2     3    1
     5     3     4    1
     6     4     5    1
     7     6     5    1
     8     6     7    1
     9     7     8    1
    10     8     9    1
    11     9    10   ar
    12    10    11   ar
    13    11    12    1
    14    11    13   ar
    15    13    14    1
    16    13    15   ar
    17    15    16   ar
    18    19    20   am
    19    20    24    1
    20    24    25    1
    21    25    26   ar
    22    26    27   ar
    23    27    28    1
    24    27    29   ar
    25    29    30   ar
    26    30    31   ar
    27    31    32    1
    28    20    21    1
    29    21    22    1
    30    22    23    1
    31     6     1    1
    32    16     9   ar
    33    31    25   ar
    34    23    21    1
    35    16     6    1
    36     3    17    1
