@<TRIPOS>MOLECULE
*****
 33 36 0 0 0
SMALL
GASTEIGER

@<TRIPOS>ATOM
      1 N          66.0508   92.7590   13.1998 N.pl3   1  UNL1       -0.2859
      2 C          66.6240   93.0647   14.5519 C.3     1  UNL1        0.1875
      3 N          65.8870   92.2398   15.5651 N.am    1  UNL1       -0.2862
      4 C          64.8583   91.4244   14.8392 C.2     1  UNL1        0.2397
      5 O          63.8971   90.4578   15.4651 O.2     1  UNL1       -0.2734
      6 C          64.9595   91.7452   13.3773 C.3     1  UNL1        0.1304
      7 C          65.1767   92.1649   11.9537 C.3     1  UNL1        0.0444
      8 C          64.3346   91.5755   10.8613 C.3     1  UNL1        0.0743
      9 N          63.2752   90.5665   11.1925 N.3     1  UNL1       -0.2712
     10 C          63.0580   90.1469   12.6161 C.3     1  UNL1        0.0743
     11 C          63.9002   90.7362   13.7085 C.3     1  UNL1        0.0444
     12 H          66.0498   92.2345   16.5360 H       1  UNL1        0.1510
     13 C          68.6943   92.3991    8.7408 C.3     1  UNL1        0.0311
     14 C          67.8132   93.1814    9.6692 C.ar    1  UNL1       -0.0206
     15 C          67.3728   94.5660    9.2964 C.ar    1  UNL1       -0.0042
     16 C          66.4918   95.3483   10.2247 C.ar    1  UNL1        0.0009
     17 C          66.0511   94.7459   11.5259 C.ar    1  UNL1        0.0145
     18 C          66.4915   93.3613   11.8986 C.ar    1  UNL1        0.0490
     19 C          67.3725   92.5791   10.9703 C.ar    1  UNL1        0.0103
     20 C          62.4331   89.9771   10.1000 C.3     1  UNL1        0.0919
     21 C          60.9401   89.9407   10.2407 C.3     1  UNL1        0.0878
     22 C          60.3021   90.2810   11.5550 C.3     1  UNL1        0.0227
     23 N          60.0852   89.5639    9.0673 N.am    1  UNL1       -0.3011
     24 C          60.0718   88.1477    8.5730 C.2     1  UNL1        0.2458
     25 O          59.2168   87.7710    7.3995 O.2     1  UNL1       -0.2701
     26 H          59.5328   90.2461    8.6215 H       1  UNL1        0.1497
     27 C          60.9134   87.1083    9.2521 C.ar    1  UNL1        0.0534
     28 C          61.9311   86.3363    8.4659 C.ar    1  UNL1        0.0050
     29 C          62.7728   85.2968    9.1451 C.ar    1  UNL1        0.0068
     30 C          62.5967   85.0295   10.6105 C.ar    1  UNL1        0.0346
     31 BR         63.4383   83.9901   11.2897 Br      1  UNL1       -0.0490
     32 C          61.5790   85.8016   11.3968 C.ar    1  UNL1        0.0068
     33 C          60.7374   86.8410   10.7176 C.ar    1  UNL1        0.0050
@<TRIPOS>BOND
     1    13    14    1
     2    14    15   ar
     3    15    16   ar
     4    16    17   ar
     5    17    18   ar
     6    18     1    1
     7     1     2    1
     8     2     3    1
     9     3     4   am
    10     4     5    2
    11     4     6    1
    12     6     7    1
    13     7     8    1
    14     8     9    1
    15     9    20    1
    16    20    21    1
    17    21    22    1
    18    21    23    1
    19    23    24   am
    20    24    25    2
    21    24    27    1
    22    27    28   ar
    23    28    29   ar
    24    29    30   ar
    25    30    31    1
    26    30    32   ar
    27    32    33   ar
    28     9    10    1
    29    10    11    1
    30    18    19   ar
    31    19    14   ar
    32     6     1    1
    33    33    27   ar
    34    11     6    1
    35     3    12    1
    36    23    26    1
@<TRIPOS>MOLECULE
*****
 33 36 0 0 0
SMALL
GASTEIGER

@<TRIPOS>ATOM
      1 N          65.9807   92.7335   13.1606 N.pl3   1  UNL1       -0.2859
      2 C          66.5163   93.0341   14.5291 C.3     1  UNL1        0.1875
      3 N          65.7496   92.2077   15.5188 N.am    1  UNL1       -0.2862
      4 C          64.7403   91.3963   14.7619 C.2     1  UNL1        0.2397
      5 O          63.7603   90.4296   15.3577 O.2     1  UNL1       -0.2734
      6 C          64.8831   91.7212   13.3044 C.3     1  UNL1        0.1304
      7 C          65.1409   92.1446   11.8887 C.3     1  UNL1        0.0444
      8 C          64.3288   91.5600   10.7713 C.3     1  UNL1        0.0743
      9 N          63.2588   90.5519   11.0697 N.3     1  UNL1       -0.2712
     10 C          63.0010   90.1285   12.4853 C.3     1  UNL1        0.0743
     11 C          63.8131   90.7132   13.6027 C.3     1  UNL1        0.0444
     12 H          65.8851   92.1993   16.4939 H       1  UNL1        0.1510
     13 C          68.7147   92.3665    8.7571 C.3     1  UNL1        0.0311
     14 C          67.8258   93.1553    9.6724 C.ar    1  UNL1       -0.0206
     15 C          67.4150   94.5495    9.3012 C.ar    1  UNL1       -0.0042
     16 C          66.5262   95.3382   10.2165 C.ar    1  UNL1        0.0009
     17 C          66.0481   94.7329   11.5030 C.ar    1  UNL1        0.0145
     18 C          66.4588   93.3388   11.8741 C.ar    1  UNL1        0.0490
     19 C          67.3477   92.5500   10.9588 C.ar    1  UNL1        0.0103
     20 C          62.4466   89.9673    9.9522 C.3     1  UNL1        0.0919
     21 C          61.2846   89.0700   10.2595 C.3     1  UNL1        0.0878
     22 C          60.0552   89.1143    9.4011 C.3     1  UNL1        0.0227
     23 N          61.3518   88.1283   11.4251 N.am    1  UNL1       -0.3011
     24 C          61.5099   86.6551   11.1910 C.2     1  UNL1        0.2458
     25 O          61.5771   85.7135   12.3567 O.2     1  UNL1       -0.2701
     26 H          61.2922   88.4772   12.3438 H       1  UNL1        0.1497
     27 C          61.6007   86.1236    9.7913 C.ar    1  UNL1        0.0534
     28 C          62.8861   85.5296    9.2966 C.ar    1  UNL1        0.0050
     29 C          62.9770   84.9981    7.8968 C.ar    1  UNL1        0.0068
     30 C          61.7824   85.0606    6.9918 C.ar    1  UNL1        0.0346
     31 BR         61.8732   84.5291    5.5921 Br      1  UNL1       -0.0490
     32 C          60.4969   85.6547    7.4866 C.ar    1  UNL1        0.0068
     33 C          60.4061   86.1862    8.8863 C.ar    1  UNL1        0.0050
@<TRIPOS>BOND
     1    13    14    1
     2    14    15   ar
     3    15    16   ar
     4    16    17   ar
     5    17    18   ar
     6    18     1    1
     7     1     2    1
     8     2     3    1
     9     3     4   am
    10     4     5    2
    11     4     6    1
    12     6     7    1
    13     7     8    1
    14     8     9    1
    15     9    20    1
    16    20    21    1
    17    21    22    1
    18    21    23    1
    19    23    24   am
    20    24    25    2
    21    24    27    1
    22    27    28   ar
    23    28    29   ar
    24    29    30   ar
    25    30    31    1
    26    30    32   ar
    27    32    33   ar
    28     9    10    1
    29    10    11    1
    30    18    19   ar
    31    19    14   ar
    32     6     1    1
    33    33    27   ar
    34    11     6    1
    35     3    12    1
    36    23    26    1
@<TRIPOS>MOLECULE
*****
 33 36 0 0 0
SMALL
GASTEIGER

@<TRIPOS>ATOM
      1 N          65.1159   91.2553   14.3512 N.pl3   1  UNL1       -0.2859
      2 C          66.0661   92.2236   14.9914 C.3     1  UNL1        0.1875
      3 N          66.4373   93.2547   13.9672 N.am    1  UNL1       -0.2862
      4 C          65.7165   92.9238   12.6940 C.2     1  UNL1        0.2397
      5 O          65.7980   93.6934   11.4091 O.2     1  UNL1       -0.2734
      6 C          64.8999   91.6881   12.9313 C.3     1  UNL1        0.1304
      7 C          64.1392   90.4536   13.3153 C.3     1  UNL1        0.0444
      8 C          63.2608   89.7707   12.3094 C.3     1  UNL1        0.0743
      9 N          63.1431   90.3222   10.9194 N.3     1  UNL1       -0.2712
     10 C          63.9037   91.5566   10.5354 C.3     1  UNL1        0.0743
     11 C          64.7821   92.2396   11.5413 C.3     1  UNL1        0.0444
     12 H          67.0469   94.0152   14.1062 H       1  UNL1        0.1510
     13 C          64.5650   86.1042   14.7541 C.3     1  UNL1        0.0311
     14 C          64.2161   87.4880   15.2158 C.ar    1  UNL1       -0.0206
     15 C          63.2426   87.6802   16.3408 C.ar    1  UNL1       -0.0042
     16 C          62.8936   89.0640   16.8026 C.ar    1  UNL1        0.0009
     17 C          63.5181   90.2557   16.1394 C.ar    1  UNL1        0.0145
     18 C          64.4915   90.0636   15.0144 C.ar    1  UNL1        0.0490
     19 C          64.8404   88.6798   14.5526 C.ar    1  UNL1        0.0103
     20 C          62.2646   89.6392    9.9134 C.3     1  UNL1        0.0919
     21 C          60.7938   89.5010   10.1732 C.3     1  UNL1        0.0878
     22 C          60.2314   89.8678   11.5147 C.3     1  UNL1        0.0227
     23 N          59.8853   88.9962    9.0917 N.am    1  UNL1       -0.3011
     24 C          59.9683   87.5651    8.6499 C.2     1  UNL1        0.2458
     25 O          59.0597   87.0602    7.5683 O.2     1  UNL1       -0.2701
     26 H          59.2346   89.6041    8.6719 H       1  UNL1        0.1497
     27 C          60.9597   86.6389    9.2895 C.ar    1  UNL1        0.0534
     28 C          60.9057   86.3871   10.7672 C.ar    1  UNL1        0.0050
     29 C          61.8972   85.4609   11.4070 C.ar    1  UNL1        0.0068
     30 C          62.9426   84.7866   10.5690 C.ar    1  UNL1        0.0346
     31 BR         63.9340   83.8604   11.2086 Br      1  UNL1       -0.0490
     32 C          62.9966   85.0384    9.0912 C.ar    1  UNL1        0.0068
     33 C          62.0051   85.9646    8.4515 C.ar    1  UNL1        0.0050
@<TRIPOS>BOND
     1    13    14    1
     2    14    15   ar
     3    15    16   ar
     4    16    17   ar
     5    17    18   ar
     6    18     1    1
     7     1     2    1
     8     2     3    1
     9     3     4   am
    10     4     5    2
    11     4     6    1
    12     6     7    1
    13     7     8    1
    14     8     9    1
    15     9    20    1
    16    20    21    1
    17    21    22    1
    18    21    23    1
    19    23    24   am
    20    24    25    2
    21    24    27    1
    22    27    28   ar
    23    28    29   ar
    24    29    30   ar
    25    30    31    1
    26    30    32   ar
    27    32    33   ar
    28     9    10    1
    29    10    11    1
    30    18    19   ar
    31    19    14   ar
    32     6     1    1
    33    33    27   ar
    34    11     6    1
    35     3    12    1
    36    23    26    1
@<TRIPOS>MOLECULE
*****
 33 36 0 0 0
SMALL
GASTEIGER

@<TRIPOS>ATOM
      1 N          62.7422   83.6990   12.0714 N.pl3   1  UNL1       -0.2859
      2 C          62.4570   82.2268   12.0310 C.3     1  UNL1        0.1875
      3 N          62.8678   81.6388   13.3484 N.am    1  UNL1       -0.2862
      4 C          63.4068   82.7475   14.2030 C.2     1  UNL1        0.2397
      5 O          63.9313   82.6075   15.6013 O.2     1  UNL1       -0.2734
      6 C          63.3292   84.0208   13.4138 C.3     1  UNL1        0.1304
      7 C          63.1901   85.2084   12.5082 C.3     1  UNL1        0.0444
      8 C          63.6233   86.5651   12.9787 C.3     1  UNL1        0.0743
      9 N          64.1957   86.7343   14.3549 N.3     1  UNL1       -0.2712
     10 C          64.3348   85.5467   15.2605 C.3     1  UNL1        0.0743
     11 C          63.9015   84.1899   14.7899 C.3     1  UNL1        0.0444
     12 H          62.7962   80.6915   13.6068 H       1  UNL1        0.1510
     13 C          60.0973   87.7447   10.1644 C.3     1  UNL1        0.0311
     14 C          61.1630   86.7003   10.0104 C.ar    1  UNL1       -0.0206
     15 C          61.9719   86.6345    8.7489 C.ar    1  UNL1       -0.0042
     16 C          63.0376   85.5901    8.5949 C.ar    1  UNL1        0.0009
     17 C          63.2943   84.6116    9.7024 C.ar    1  UNL1        0.0145
     18 C          62.4854   84.6775   10.9639 C.ar    1  UNL1        0.0490
     19 C          61.4198   85.7219   11.1179 C.ar    1  UNL1        0.0103
     20 C          64.6289   88.0911   14.8254 C.3     1  UNL1        0.0919
     21 C          63.6185   89.1886   14.9820 C.3     1  UNL1        0.0878
     22 C          63.1051   89.5465   16.3452 C.3     1  UNL1        0.0227
     23 N          63.1215   89.9283   13.7754 N.am    1  UNL1       -0.3011
     24 C          63.8882   91.1050   13.2485 C.2     1  UNL1        0.2458
     25 O          63.3912   91.8447   12.0419 O.2     1  UNL1       -0.2701
     26 H          62.2921   89.6414   13.3292 H       1  UNL1        0.1497
     27 C          65.1519   91.5421   13.9283 C.ar    1  UNL1        0.0534
     28 C          66.4548   91.5032   13.1861 C.ar    1  UNL1        0.0050
     29 C          67.7185   91.9402   13.8659 C.ar    1  UNL1        0.0068
     30 C          67.6793   92.4161   15.2878 C.ar    1  UNL1        0.0346
     31 BR         68.9430   92.8532   15.9676 Br      1  UNL1       -0.0490
     32 C          66.3763   92.4550   16.0300 C.ar    1  UNL1        0.0068
     33 C          65.1127   92.0180   15.3502 C.ar    1  UNL1        0.0050
@<TRIPOS>BOND
     1    13    14    1
     2    14    15   ar
     3    15    16   ar
     4    16    17   ar
     5    17    18   ar
     6    18     1    1
     7     1     2    1
     8     2     3    1
     9     3     4   am
    10     4     5    2
    11     4     6    1
    12     6     7    1
    13     7     8    1
    14     8     9    1
    15     9    20    1
    16    20    21    1
    17    21    22    1
    18    21    23    1
    19    23    24   am
    20    24    25    2
    21    24    27    1
    22    27    28   ar
    23    28    29   ar
    24    29    30   ar
    25    30    31    1
    26    30    32   ar
    27    32    33   ar
    28     9    10    1
    29    10    11    1
    30    18    19   ar
    31    19    14   ar
    32     6     1    1
    33    33    27   ar
    34    11     6    1
    35     3    12    1
    36    23    26    1
@<TRIPOS>MOLECULE
*****
 33 36 0 0 0
SMALL
GASTEIGER

@<TRIPOS>ATOM
      1 N          62.6599   83.7806   12.1846 N.pl3   1  UNL1       -0.2859
      2 C          62.3446   82.3162   12.2648 C.3     1  UNL1        0.1875
      3 N          62.7094   81.8381   13.6390 N.am    1  UNL1       -0.2862
      4 C          63.2501   83.0069   14.4080 C.2     1  UNL1        0.2397
      5 O          63.7362   82.9801   15.8268 O.2     1  UNL1       -0.2734
      6 C          63.2195   84.2075   13.5092 C.3     1  UNL1        0.1304
      7 C          63.1286   85.3137   12.5002 C.3     1  UNL1        0.0444
      8 C          63.5787   86.6979   12.8624 C.3     1  UNL1        0.0743
      9 N          64.1196   86.9760   14.2335 N.3     1  UNL1       -0.2712
     10 C          64.2106   85.8699   15.2425 C.3     1  UNL1        0.0743
     11 C          63.7605   84.4856   14.8803 C.3     1  UNL1        0.0444
     12 H          62.6112   80.9187   13.9768 H       1  UNL1        0.1510
     13 C          60.1159   87.6595    9.8431 C.3     1  UNL1        0.0311
     14 C          61.1800   86.6025    9.8189 C.ar    1  UNL1       -0.0206
     15 C          62.0362   86.4280    8.5996 C.ar    1  UNL1       -0.0042
     16 C          63.1003   85.3711    8.5754 C.ar    1  UNL1        0.0009
     17 C          63.3082   84.4886    9.7704 C.ar    1  UNL1        0.0145
     18 C          62.4520   84.6631   10.9896 C.ar    1  UNL1        0.0490
     19 C          61.3879   85.7201   11.0138 C.ar    1  UNL1        0.0103
     20 C          64.5697   88.3604   14.5957 C.3     1  UNL1        0.0919
     21 C          63.5726   89.4787   14.6664 C.3     1  UNL1        0.0878
     22 C          62.5220   89.6151   13.6044 C.3     1  UNL1        0.0227
     23 N          63.6260   90.4608   15.7990 N.am    1  UNL1       -0.3011
     24 C          64.5694   91.6255   15.7379 C.2     1  UNL1        0.2458
     25 O          64.6228   92.6075   16.8705 O.2     1  UNL1       -0.2701
     26 H          63.0420   90.3409   16.5824 H       1  UNL1        0.1497
     27 C          65.4592   91.8081   14.5443 C.ar    1  UNL1        0.0534
     28 C          64.8674   92.1835   13.2181 C.ar    1  UNL1        0.0050
     29 C          65.7573   92.3662   12.0244 C.ar    1  UNL1        0.0068
     30 C          67.2389   92.1734   12.1570 C.ar    1  UNL1        0.0346
     31 BR         68.1287   92.3560   10.9633 Br      1  UNL1       -0.0490
     32 C          67.8307   91.7980   13.4832 C.ar    1  UNL1        0.0068
     33 C          66.9408   91.6153   14.6769 C.ar    1  UNL1        0.0050
@<TRIPOS>BOND
     1    13    14    1
     2    14    15   ar
     3    15    16   ar
     4    16    17   ar
     5    17    18   ar
     6    18     1    1
     7     1     2    1
     8     2     3    1
     9     3     4   am
    10     4     5    2
    11     4     6    1
    12     6     7    1
    13     7     8    1
    14     8     9    1
    15     9    20    1
    16    20    21    1
    17    21    22    1
    18    21    23    1
    19    23    24   am
    20    24    25    2
    21    24    27    1
    22    27    28   ar
    23    28    29   ar
    24    29    30   ar
    25    30    31    1
    26    30    32   ar
    27    32    33   ar
    28     9    10    1
    29    10    11    1
    30    18    19   ar
    31    19    14   ar
    32     6     1    1
    33    33    27   ar
    34    11     6    1
    35     3    12    1
    36    23    26    1
@<TRIPOS>MOLECULE
*****
 33 36 0 0 0
SMALL
GASTEIGER

@<TRIPOS>ATOM
      1 N          62.7457   83.8516   12.2228 N.pl3   1  UNL1       -0.2859
      2 C          62.4901   82.3779   12.3367 C.3     1  UNL1        0.1875
      3 N          62.8830   81.9447   13.7181 N.am    1  UNL1       -0.2862
      4 C          63.3813   83.1507   14.4579 C.2     1  UNL1        0.2397
      5 O          63.8773   83.1742   15.8733 O.2     1  UNL1       -0.2734
      6 C          63.2964   84.3293   13.5338 C.3     1  UNL1        0.1304
      7 C          63.1544   85.4087   12.5020 C.3     1  UNL1        0.0444
      8 C          63.5507   86.8175   12.8311 C.3     1  UNL1        0.0743
      9 N          64.0890   87.1468   14.1919 N.3     1  UNL1       -0.2712
     10 C          64.2311   86.0673   15.2236 C.3     1  UNL1        0.0743
     11 C          63.8348   84.6586   14.8946 C.3     1  UNL1        0.0444
     12 H          62.8241   81.0296   14.0763 H       1  UNL1        0.1510
     13 C          60.0402   87.5822    9.8222 C.3     1  UNL1        0.0311
     14 C          61.1418   86.5641    9.8105 C.ar    1  UNL1       -0.0206
     15 C          61.9922   86.3934    8.5867 C.ar    1  UNL1       -0.0042
     16 C          63.0938   85.3754    8.5750 C.ar    1  UNL1        0.0009
     17 C          63.3450   84.5281    9.7871 C.ar    1  UNL1        0.0145
     18 C          62.4945   84.6989   11.0108 C.ar    1  UNL1        0.0490
     19 C          61.3929   85.7169   11.0225 C.ar    1  UNL1        0.0103
     20 C          64.4853   88.5556   14.5209 C.3     1  UNL1        0.0919
     21 C          63.4322   89.5786   14.8283 C.3     1  UNL1        0.0878
     22 C          63.6713   90.6032   15.8975 C.3     1  UNL1        0.0227
     23 N          62.1401   89.5771   14.0664 N.am    1  UNL1       -0.3011
     24 C          62.0467   90.2843   12.7468 C.2     1  UNL1        0.2458
     25 O          60.7545   90.2828   11.9850 O.2     1  UNL1       -0.2701
     26 H          61.3534   89.1120   14.4325 H       1  UNL1        0.1497
     27 C          63.2453   90.9929   12.1891 C.ar    1  UNL1        0.0534
     28 C          64.2764   91.5656   13.1158 C.ar    1  UNL1        0.0050
     29 C          65.4751   92.2742   12.5581 C.ar    1  UNL1        0.0068
     30 C          65.6427   92.4101   11.0737 C.ar    1  UNL1        0.0346
     31 BR         66.8413   93.1187   10.5160 Br      1  UNL1       -0.0490
     32 C          64.6115   91.8374   10.1470 C.ar    1  UNL1        0.0068
     33 C          63.4129   91.1288   10.7047 C.ar    1  UNL1        0.0050
@<TRIPOS>BOND
     1    13    14    1
     2    14    15   ar
     3    15    16   ar
     4    16    17   ar
     5    17    18   ar
     6    18     1    1
     7     1     2    1
     8     2     3    1
     9     3     4   am
    10     4     5    2
    11     4     6    1
    12     6     7    1
    13     7     8    1
    14     8     9    1
    15     9    20    1
    16    20    21    1
    17    21    22    1
    18    21    23    1
    19    23    24   am
    20    24    25    2
    21    24    27    1
    22    27    28   ar
    23    28    29   ar
    24    29    30   ar
    25    30    31    1
    26    30    32   ar
    27    32    33   ar
    28     9    10    1
    29    10    11    1
    30    18    19   ar
    31    19    14   ar
    32     6     1    1
    33    33    27   ar
    34    11     6    1
    35     3    12    1
    36    23    26    1
@<TRIPOS>MOLECULE
*****
 33 36 0 0 0
SMALL
GASTEIGER

@<TRIPOS>ATOM
      1 N          60.8772   86.1900    8.6514 N.pl3   1  UNL1       -0.2859
      2 C          59.8447   85.6692    7.6959 C.3     1  UNL1        0.1875
      3 N          59.0577   86.8381    7.1816 N.am    1  UNL1       -0.2862
      4 C          59.6038   88.0812    7.8191 C.2     1  UNL1        0.2397
      5 O          59.1118   89.4793    7.5887 O.2     1  UNL1       -0.2734
      6 C          60.7284   87.6807    8.7275 C.3     1  UNL1        0.1304
      7 C          61.8248   87.1322    9.5916 C.3     1  UNL1        0.0444
      8 C          62.6547   88.0595   10.4290 C.3     1  UNL1        0.0743
      9 N          62.3881   89.5354   10.4022 N.3     1  UNL1       -0.2712
     10 C          61.2917   90.0839    9.5381 C.3     1  UNL1        0.0743
     11 C          60.4618   89.1566    8.7007 C.3     1  UNL1        0.0444
     12 H          58.3134   86.7966    6.5385 H       1  UNL1        0.1510
     13 C          62.6229   84.1807   13.1140 C.3     1  UNL1        0.0311
     14 C          62.7549   84.3604   11.6307 C.ar    1  UNL1       -0.0206
     15 C          63.8920   83.7149   10.8952 C.ar    1  UNL1       -0.0042
     16 C          64.0240   83.8946    9.4119 C.ar    1  UNL1        0.0009
     17 C          63.0191   84.7196    8.6639 C.ar    1  UNL1        0.0145
     18 C          61.8821   85.3650    9.3993 C.ar    1  UNL1        0.0490
     19 C          61.7501   85.1854   10.8827 C.ar    1  UNL1        0.0103
     20 C          63.2181   90.4627   11.2397 C.3     1  UNL1        0.0919
     21 C          62.8803   90.6721   12.6861 C.3     1  UNL1        0.0878
     22 C          61.7039   89.9652   13.2914 C.3     1  UNL1        0.0227
     23 N          63.7189   91.5883   13.5271 N.am    1  UNL1       -0.3011
     24 C          64.2960   91.0989   14.8224 C.2     1  UNL1        0.2458
     25 O          65.1346   92.0151   15.6634 O.2     1  UNL1       -0.2701
     26 H          63.8905   92.5107   13.2291 H       1  UNL1        0.1497
     27 C          64.0345   89.6935   15.2765 C.ar    1  UNL1        0.0534
     28 C          64.5868   88.5380   14.4956 C.ar    1  UNL1        0.0050
     29 C          64.3253   87.1325   14.9497 C.ar    1  UNL1        0.0068
     30 C          63.5115   86.8825   16.1847 C.ar    1  UNL1        0.0346
     31 BR         63.2500   85.4770   16.6388 Br      1  UNL1       -0.0490
     32 C          62.9592   88.0380   16.9656 C.ar    1  UNL1        0.0068
     33 C          63.2207   89.4435   16.5115 C.ar    1  UNL1        0.0050
@<TRIPOS>BOND
     1    13    14    1
     2    14    15   ar
     3    15    16   ar
     4    16    17   ar
     5    17    18   ar
     6    18     1    1
     7     1     2    1
     8     2     3    1
     9     3     4   am
    10     4     5    2
    11     4     6    1
    12     6     7    1
    13     7     8    1
    14     8     9    1
    15     9    20    1
    16    20    21    1
    17    21    22    1
    18    21    23    1
    19    23    24   am
    20    24    25    2
    21    24    27    1
    22    27    28   ar
    23    28    29   ar
    24    29    30   ar
    25    30    31    1
    26    30    32   ar
    27    32    33   ar
    28     9    10    1
    29    10    11    1
    30    18    19   ar
    31    19    14   ar
    32     6     1    1
    33    33    27   ar
    34    11     6    1
    35     3    12    1
    36    23    26    1
@<TRIPOS>MOLECULE
*****
 33 36 0 0 0
SMALL
GASTEIGER

@<TRIPOS>ATOM
      1 N          61.2252   86.5784    9.7256 N.pl3   1  UNL1       -0.2859
      2 C          60.1661   86.5396    8.6639 C.3     1  UNL1        0.1875
      3 N          59.5332   87.8976    8.5908 N.am    1  UNL1       -0.2862
      4 C          60.2011   88.7757    9.6071 C.2     1  UNL1        0.2397
      5 O          59.8798   90.2161    9.8751 O.2     1  UNL1       -0.2734
      6 C          61.2468   87.9603   10.3085 C.3     1  UNL1        0.1304
      7 C          62.2489   87.0253   10.9180 C.3     1  UNL1        0.0444
      8 C          63.1567   87.5073   12.0104 C.3     1  UNL1        0.0743
      9 N          63.0626   88.9243   12.4932 N.3     1  UNL1       -0.2712
     10 C          62.0606   89.8594   11.8837 C.3     1  UNL1        0.0743
     11 C          61.1527   89.3774   10.7913 C.3     1  UNL1        0.0444
     12 H          58.8069   88.1656    7.9825 H       1  UNL1        0.1510
     13 C          62.7019   83.0727   13.2652 C.3     1  UNL1        0.0311
     14 C          62.8460   83.6830   11.9025 C.ar    1  UNL1       -0.0206
     15 C          63.8725   83.1507   10.9470 C.ar    1  UNL1       -0.0042
     16 C          64.0166   83.7610    9.5844 C.ar    1  UNL1        0.0009
     17 C          63.1341   84.9035    9.1772 C.ar    1  UNL1        0.0145
     18 C          62.1076   85.4358   10.1327 C.ar    1  UNL1        0.0490
     19 C          61.9636   84.8255   11.4953 C.ar    1  UNL1        0.0103
     20 C          63.9706   89.4063   13.5857 C.3     1  UNL1        0.0919
     21 C          64.5479   90.7894   13.5255 C.3     1  UNL1        0.0878
     22 C          64.2635   91.6701   12.3449 C.3     1  UNL1        0.0227
     23 N          65.4095   91.2919   14.6458 N.am    1  UNL1       -0.3011
     24 C          66.5203   92.2593   14.3618 C.2     1  UNL1        0.2458
     25 O          67.3819   92.7618   15.4821 O.2     1  UNL1       -0.2701
     26 H          65.2460   90.9869   15.5675 H       1  UNL1        0.1497
     27 C          66.7693   92.7240   12.9576 C.ar    1  UNL1        0.0534
     28 C          67.5631   91.8694   12.0145 C.ar    1  UNL1        0.0050
     29 C          67.8122   92.3341   10.6102 C.ar    1  UNL1        0.0068
     30 C          67.2676   93.6535   10.1491 C.ar    1  UNL1        0.0346
     31 BR         67.5167   94.1183    8.7448 Br      1  UNL1       -0.0490
     32 C          66.4738   94.5081   11.0923 C.ar    1  UNL1        0.0068
     33 C          66.2247   94.0434   12.4965 C.ar    1  UNL1        0.0050
@<TRIPOS>BOND
     1    13    14    1
     2    14    15   ar
     3    15    16   ar
     4    16    17   ar
     5    17    18   ar
     6    18     1    1
     7     1     2    1
     8     2     3    1
     9     3     4   am
    10     4     5    2
    11     4     6    1
    12     6     7    1
    13     7     8    1
    14     8     9    1
    15     9    20    1
    16    20    21    1
    17    21    22    1
    18    21    23    1
    19    23    24   am
    20    24    25    2
    21    24    27    1
    22    27    28   ar
    23    28    29   ar
    24    29    30   ar
    25    30    31    1
    26    30    32   ar
    27    32    33   ar
    28     9    10    1
    29    10    11    1
    30    18    19   ar
    31    19    14   ar
    32     6     1    1
    33    33    27   ar
    34    11     6    1
    35     3    12    1
    36    23    26    1
@<TRIPOS>MOLECULE
*****
 33 36 0 0 0
SMALL
GASTEIGER

@<TRIPOS>ATOM
      1 N          61.1892   86.4074    9.4313 N.pl3   1  UNL1       -0.2859
      2 C          60.2200   85.9911    8.3646 C.3     1  UNL1        0.1875
      3 N          59.5399   87.2248    7.8493 N.am    1  UNL1       -0.2862
      4 C          60.0886   88.4034    8.5974 C.2     1  UNL1        0.2397
      5 O          59.6884   89.8358    8.4022 O.2     1  UNL1       -0.2734
      6 C          61.1080   87.8982    9.5751 C.3     1  UNL1        0.1304
      7 C          62.0960   87.2491   10.4984 C.3     1  UNL1        0.0444
      8 C          62.8939   88.0876   11.4524 C.3     1  UNL1        0.0743
      9 N          62.7039   89.5752   11.4832 N.3     1  UNL1       -0.2712
     10 C          61.7159   90.2243   10.5599 C.3     1  UNL1        0.0743
     11 C          60.9180   89.3858    9.6059 C.3     1  UNL1        0.0444
     12 H          58.8538   87.2555    7.1440 H       1  UNL1        0.1510
     13 C          62.5640   84.2508   13.9544 C.3     1  UNL1        0.0311
     14 C          62.7700   84.4149   12.4777 C.ar    1  UNL1       -0.0206
     15 C          63.8695   83.6649   11.7859 C.ar    1  UNL1       -0.0042
     16 C          64.0755   83.8290   10.3092 C.ar    1  UNL1        0.0009
     17 C          63.1821   84.7432    9.5243 C.ar    1  UNL1        0.0145
     18 C          62.0826   85.4932   10.2161 C.ar    1  UNL1        0.0490
     19 C          61.8766   85.3290   11.6928 C.ar    1  UNL1        0.0103
     20 C          63.5019   90.4136   12.4372 C.3     1  UNL1        0.0919
     21 C          63.9543   89.8361   13.7456 C.3     1  UNL1        0.0878
     22 C          64.1527   88.3556   13.8834 C.3     1  UNL1        0.0227
     23 N          64.2084   90.7390   14.9162 N.am    1  UNL1       -0.3011
     24 C          65.2487   91.8155   14.8212 C.2     1  UNL1        0.2458
     25 O          65.5027   92.7184   15.9917 O.2     1  UNL1       -0.2701
     26 H          63.6923   90.6250   15.7468 H       1  UNL1        0.1497
     27 C          66.0349   91.9891   13.5556 C.ar    1  UNL1        0.0534
     28 C          65.4015   92.6418   12.3628 C.ar    1  UNL1        0.0050
     29 C          66.1877   92.8155   11.0972 C.ar    1  UNL1        0.0068
     30 C          67.6073   92.3363   11.0244 C.ar    1  UNL1        0.0346
     31 BR         68.3935   92.5099    9.7588 Br      1  UNL1       -0.0490
     32 C          68.2406   91.6836   12.2173 C.ar    1  UNL1        0.0068
     33 C          67.4544   91.5100   13.4828 C.ar    1  UNL1        0.0050
@<TRIPOS>BOND
     1    13    14    1
     2    14    15   ar
     3    15    16   ar
     4    16    17   ar
     5    17    18   ar
     6    18     1    1
     7     1     2    1
     8     2     3    1
     9     3     4   am
    10     4     5    2
    11     4     6    1
    12     6     7    1
    13     7     8    1
    14     8     9    1
    15     9    20    1
    16    20    21    1
    17    21    22    1
    18    21    23    1
    19    23    24   am
    20    24    25    2
    21    24    27    1
    22    27    28   ar
    23    28    29   ar
    24    29    30   ar
    25    30    31    1
    26    30    32   ar
    27    32    33   ar
    28     9    10    1
    29    10    11    1
    30    18    19   ar
    31    19    14   ar
    32     6     1    1
    33    33    27   ar
    34    11     6    1
    35     3    12    1
    36    23    26    1
