@<TRIPOS>MOLECULE
*****
 16 17 0 0 0
SMALL
GASTEIGER

@<TRIPOS>ATOM
      1 C          63.6702   83.7232   10.7467 C.ar    1  UNL1        0.1386
      2 C          62.7025   84.4496   11.6332 C.ar    1  UNL1        0.0369
      3 C          61.8274   85.5269   11.0644 C.ar    1  UNL1        0.0037
      4 C          61.9199   85.8777    9.6089 C.ar    1  UNL1        0.0077
      5 C          62.8875   85.1513    8.7224 C.ar    1  UNL1        0.0037
      6 C          63.7626   84.0741    9.2912 C.ar    1  UNL1        0.0369
      7 C          61.0447   86.9550    9.0401 C.ar    1  UNL1        0.0490
      8 C          60.0421   86.7859    7.9373 C.ar    1  UNL1        0.0292
      9 C          59.3963   88.1169    7.6898 C.ar    1  UNL1        0.1078
     10 N          59.9997   89.1087    8.6396 N.ar    1  UNL1       -0.2076
     11 S          61.0185   88.3906    9.4742 S.2     1  UNL1        0.0130
     12 O          64.5453   82.6459   11.3155 O.3     1  UNL1       -0.4755
     13 C          64.1208   81.9094   12.5513 C.3     1  UNL1        0.2054
     14 C          63.0785   80.8343   12.4629 C.3     1  UNL1        0.0473
     15 C          61.0614   81.0230   14.0896 C.3     1  UNL1        0.0001
     16 C          62.3605   80.3823   13.7000 C.3     1  UNL1        0.0038
@<TRIPOS>BOND
     1    15    16    1
     2    16    14    1
     3    14    13    1
     4    13    12    1
     5    12     1    1
     6     1     2   ar
     7     2     3   ar
     8     3     4   ar
     9     4     7    1
    10     7     8   ar
    11     8     9   ar
    12     9    10   ar
    13    10    11   ar
    14     4     5   ar
    15     5     6   ar
    16     6     1   ar
    17    11     7   ar
@<TRIPOS>MOLECULE
*****
 16 17 0 0 0
SMALL
GASTEIGER

@<TRIPOS>ATOM
      1 C          63.9516   91.1211   12.2659 C.ar    1  UNL1        0.1386
      2 C          63.5315   91.5061   10.8783 C.ar    1  UNL1        0.0369
      3 C          62.7627   90.5360   10.0311 C.ar    1  UNL1        0.0037
      4 C          62.4140   89.1809   10.5714 C.ar    1  UNL1        0.0077
      5 C          62.8341   88.7959   11.9589 C.ar    1  UNL1        0.0037
      6 C          63.6029   89.7660   12.8061 C.ar    1  UNL1        0.0369
      7 C          61.6452   88.2107    9.7242 C.ar    1  UNL1        0.0490
      8 C          62.0710   86.8156    9.3743 C.ar    1  UNL1        0.0292
      9 C          61.0046   86.2080    8.5119 C.ar    1  UNL1        0.1078
     10 N          59.9197   87.2276    8.3288 N.ar    1  UNL1       -0.2076
     11 S          60.3157   88.4653    9.0780 S.2     1  UNL1        0.0130
     12 O          64.7204   92.0913   13.1131 O.3     1  UNL1       -0.4755
     13 C          65.7100   93.0220   12.4772 C.3     1  UNL1        0.2054
     14 C          66.9168   92.4699   11.7781 C.3     1  UNL1        0.0473
     15 C          68.3167   92.1617    9.6112 C.3     1  UNL1        0.0001
     16 C          67.0943   92.6864   10.3044 C.3     1  UNL1        0.0038
@<TRIPOS>BOND
     1    15    16    1
     2    16    14    1
     3    14    13    1
     4    13    12    1
     5    12     1    1
     6     1     2   ar
     7     2     3   ar
     8     3     4   ar
     9     4     7    1
    10     7     8   ar
    11     8     9   ar
    12     9    10   ar
    13    10    11   ar
    14     4     5   ar
    15     5     6   ar
    16     6     1   ar
    17    11     7   ar
@<TRIPOS>MOLECULE
*****
 16 17 0 0 0
SMALL
GASTEIGER

@<TRIPOS>ATOM
      1 C          63.9322   91.0303   12.3602 C.ar    1  UNL1        0.1386
      2 C          63.5365   91.4495   10.9754 C.ar    1  UNL1        0.0369
      3 C          62.7765   90.5033   10.0938 C.ar    1  UNL1        0.0037
      4 C          62.4123   89.1380   10.5969 C.ar    1  UNL1        0.0077
      5 C          62.8080   88.7188   11.9817 C.ar    1  UNL1        0.0037
      6 C          63.5680   89.6649   12.8633 C.ar    1  UNL1        0.0369
      7 C          61.6524   88.1918    9.7153 C.ar    1  UNL1        0.0490
      8 C          62.0643   86.7939    9.3603 C.ar    1  UNL1        0.0292
      9 C          61.0136   86.2156    8.4595 C.ar    1  UNL1        0.1078
     10 N          59.9523   87.2561    8.2576 N.ar    1  UNL1       -0.2076
     11 S          60.3471   88.4775    9.0337 S.2     1  UNL1        0.0130
     12 O          64.6921   91.9764   13.2419 O.3     1  UNL1       -0.4755
     13 C          66.0075   92.5344   12.7853 C.3     1  UNL1        0.2054
     14 C          67.2756   92.1244   13.4737 C.3     1  UNL1        0.0473
     15 C          67.4937   92.5771   16.0227 C.3     1  UNL1        0.0001
     16 C          67.2344   91.6296   14.8892 C.3     1  UNL1        0.0038
@<TRIPOS>BOND
     1    15    16    1
     2    16    14    1
     3    14    13    1
     4    13    12    1
     5    12     1    1
     6     1     2   ar
     7     2     3   ar
     8     3     4   ar
     9     4     7    1
    10     7     8   ar
    11     8     9   ar
    12     9    10   ar
    13    10    11   ar
    14     4     5   ar
    15     5     6   ar
    16     6     1   ar
    17    11     7   ar
@<TRIPOS>MOLECULE
*****
 16 17 0 0 0
SMALL
GASTEIGER

@<TRIPOS>ATOM
      1 C          63.0321   89.6175   12.4465 C.ar    1  UNL1        0.1386
      2 C          63.5105   90.9266   11.8919 C.ar    1  UNL1        0.0369
      3 C          64.6263   91.6653   12.5695 C.ar    1  UNL1        0.0037
      4 C          65.2638   91.0951   13.8017 C.ar    1  UNL1        0.0077
      5 C          64.7855   89.7861   14.3564 C.ar    1  UNL1        0.0037
      6 C          63.6696   89.0473   13.6788 C.ar    1  UNL1        0.0369
      7 C          66.3796   91.8339   14.4794 C.ar    1  UNL1        0.0490
      8 C          67.8062   91.8913   14.0194 C.ar    1  UNL1        0.0292
      9 C          68.5730   92.7379   14.9917 C.ar    1  UNL1        0.1078
     10 N          67.6203   93.2038   16.0525 N.ar    1  UNL1       -0.2076
     11 S          66.2647   92.6451   15.7359 S.2     1  UNL1        0.0130
     12 O          61.9163   88.8787   11.7689 O.3     1  UNL1       -0.4755
     13 C          62.1340   88.2676   10.4165 C.3     1  UNL1        0.2054
     14 C          62.0446   86.7805   10.2422 C.3     1  UNL1        0.0473
     15 C          62.9824   85.3253    8.3049 C.3     1  UNL1        0.0001
     16 C          61.8974   86.1937    8.8696 C.3     1  UNL1        0.0038
@<TRIPOS>BOND
     1    15    16    1
     2    16    14    1
     3    14    13    1
     4    13    12    1
     5    12     1    1
     6     1     2   ar
     7     2     3   ar
     8     3     4   ar
     9     4     7    1
    10     7     8   ar
    11     8     9   ar
    12     9    10   ar
    13    10    11   ar
    14     4     5   ar
    15     5     6   ar
    16     6     1   ar
    17    11     7   ar
@<TRIPOS>MOLECULE
*****
 16 17 0 0 0
SMALL
GASTEIGER

@<TRIPOS>ATOM
      1 C          62.0734   89.0191   11.3966 C.ar    1  UNL1        0.1386
      2 C          62.9285   89.1760   12.6189 C.ar    1  UNL1        0.0369
      3 C          63.9208   90.2979   12.7012 C.ar    1  UNL1        0.0037
      4 C          64.0579   91.2629   11.5611 C.ar    1  UNL1        0.0077
      5 C          63.2029   91.1060   10.3388 C.ar    1  UNL1        0.0037
      6 C          62.2106   89.9841   10.2565 C.ar    1  UNL1        0.0369
      7 C          65.0502   92.3848   11.6434 C.ar    1  UNL1        0.0490
      8 C          65.4007   93.3348   10.5368 C.ar    1  UNL1        0.0292
      9 C          66.4333   94.2908   11.0562 C.ar    1  UNL1        0.1078
     10 N          66.7210   93.9317   12.4838 N.ar    1  UNL1       -0.2076
     11 S          65.8662   92.7537   12.8467 S.2     1  UNL1        0.0130
     12 O          61.0812   87.8972   11.3143 O.3     1  UNL1       -0.4755
     13 C          61.5181   86.5428   10.8404 C.3     1  UNL1        0.2054
     14 C          61.5362   86.2314    9.3732 C.3     1  UNL1        0.0473
     15 C          62.6906   84.9400    7.4367 C.3     1  UNL1        0.0001
     16 C          62.7784   85.6791    8.7390 C.3     1  UNL1        0.0038
@<TRIPOS>BOND
     1    15    16    1
     2    16    14    1
     3    14    13    1
     4    13    12    1
     5    12     1    1
     6     1     2   ar
     7     2     3   ar
     8     3     4   ar
     9     4     7    1
    10     7     8   ar
    11     8     9   ar
    12     9    10   ar
    13    10    11   ar
    14     4     5   ar
    15     5     6   ar
    16     6     1   ar
    17    11     7   ar
@<TRIPOS>MOLECULE
*****
 16 17 0 0 0
SMALL
GASTEIGER

@<TRIPOS>ATOM
      1 C          62.1222   89.1757   11.4621 C.ar    1  UNL1        0.1386
      2 C          62.3028   90.0743   10.2748 C.ar    1  UNL1        0.0369
      3 C          63.3027   91.1912   10.3247 C.ar    1  UNL1        0.0037
      4 C          64.1220   91.4096   11.5620 C.ar    1  UNL1        0.0077
      5 C          63.9414   90.5111   12.7494 C.ar    1  UNL1        0.0037
      6 C          62.9415   89.3941   12.6994 C.ar    1  UNL1        0.0369
      7 C          65.1220   92.5266   11.6119 C.ar    1  UNL1        0.0490
      8 C          65.5131   93.4117   10.4658 C.ar    1  UNL1        0.0292
      9 C          66.5392   94.3868   10.9623 C.ar    1  UNL1        0.1078
     10 N          66.7823   94.1043   12.4152 N.ar    1  UNL1       -0.2076
     11 S          65.9063   92.9546   12.8167 S.2     1  UNL1        0.0130
     12 O          61.1222   88.0587   11.4122 O.3     1  UNL1       -0.4755
     13 C          60.6828   87.5041   10.0897 C.3     1  UNL1        0.2054
     14 C          61.0548   86.1034    9.7028 C.3     1  UNL1        0.0473
     15 C          62.4340   84.8452   11.5098 C.3     1  UNL1        0.0001
     16 C          62.3534   85.5159   10.1706 C.3     1  UNL1        0.0038
@<TRIPOS>BOND
     1    15    16    1
     2    16    14    1
     3    14    13    1
     4    13    12    1
     5    12     1    1
     6     1     2   ar
     7     2     3   ar
     8     3     4   ar
     9     4     7    1
    10     7     8   ar
    11     8     9   ar
    12     9    10   ar
    13    10    11   ar
    14     4     5   ar
    15     5     6   ar
    16     6     1   ar
    17    11     7   ar
@<TRIPOS>MOLECULE
*****
 16 17 0 0 0
SMALL
GASTEIGER

@<TRIPOS>ATOM
      1 C          63.4809   83.9673   11.8598 C.ar    1  UNL1        0.1386
      2 C          63.5577   83.8774   10.3645 C.ar    1  UNL1        0.0369
      3 C          62.7562   84.8182    9.5145 C.ar    1  UNL1        0.0037
      4 C          61.8780   85.8489   10.1598 C.ar    1  UNL1        0.0077
      5 C          61.8012   85.9387   11.6551 C.ar    1  UNL1        0.0037
      6 C          62.6027   84.9979   12.5051 C.ar    1  UNL1        0.0369
      7 C          61.0765   86.7897    9.3097 C.ar    1  UNL1        0.0490
      8 C          61.0053   88.2794    9.4697 C.ar    1  UNL1        0.0292
      9 C          60.0903   88.8164    8.4094 C.ar    1  UNL1        0.1078
     10 N          59.5959   87.6585    7.5940 N.ar    1  UNL1       -0.2076
     11 S          60.2054   86.4059    8.1504 S.2     1  UNL1        0.0130
     12 O          64.2824   83.0265   12.7098 O.3     1  UNL1       -0.4755
     13 C          63.8342   82.7102   14.1059 C.3     1  UNL1        0.2054
     14 C          62.4002   82.3597   14.3719 C.3     1  UNL1        0.0473
     15 C          62.4461   80.0349   13.2128 C.3     1  UNL1        0.0001
     16 C          61.7213   81.3041   13.5503 C.3     1  UNL1        0.0038
@<TRIPOS>BOND
     1    15    16    1
     2    16    14    1
     3    14    13    1
     4    13    12    1
     5    12     1    1
     6     1     2   ar
     7     2     3   ar
     8     3     4   ar
     9     4     7    1
    10     7     8   ar
    11     8     9   ar
    12     9    10   ar
    13    10    11   ar
    14     4     5   ar
    15     5     6   ar
    16     6     1   ar
    17    11     7   ar
@<TRIPOS>MOLECULE
*****
 16 17 0 0 0
SMALL
GASTEIGER

@<TRIPOS>ATOM
      1 C          63.9326   84.3814   13.8741 C.ar    1  UNL1        0.1386
      2 C          63.2140   85.0109   12.7177 C.ar    1  UNL1        0.0369
      3 C          63.1721   86.5043   12.5839 C.ar    1  UNL1        0.0037
      4 C          63.8487   87.3682   13.6064 C.ar    1  UNL1        0.0077
      5 C          64.5673   86.7388   14.7628 C.ar    1  UNL1        0.0037
      6 C          64.6093   85.2453   14.8967 C.ar    1  UNL1        0.0369
      7 C          63.8068   88.8617   13.4726 C.ar    1  UNL1        0.0490
      8 C          63.3223   89.6265   12.2766 C.ar    1  UNL1        0.0292
      9 C          63.4580   91.0900   12.5761 C.ar    1  UNL1        0.1078
     10 N          64.0264   91.2297   13.9572 N.ar    1  UNL1       -0.2076
     11 S          64.2419   89.8526   14.5112 S.2     1  UNL1        0.0130
     12 O          63.9746   82.8880   14.0079 O.3     1  UNL1       -0.4755
     13 C          64.0703   82.0276   12.7830 C.3     1  UNL1        0.2054
     14 C          62.8986   81.1921   12.3598 C.3     1  UNL1        0.0473
     15 C          60.9976   80.9041   14.1072 C.3     1  UNL1        0.0001
     16 C          62.1774   80.3467   13.3675 C.3     1  UNL1        0.0038
@<TRIPOS>BOND
     1    15    16    1
     2    16    14    1
     3    14    13    1
     4    13    12    1
     5    12     1    1
     6     1     2   ar
     7     2     3   ar
     8     3     4   ar
     9     4     7    1
    10     7     8   ar
    11     8     9   ar
    12     9    10   ar
    13    10    11   ar
    14     4     5   ar
    15     5     6   ar
    16     6     1   ar
    17    11     7   ar
@<TRIPOS>MOLECULE
*****
 16 17 0 0 0
SMALL
GASTEIGER

@<TRIPOS>ATOM
      1 C          63.3536   91.0846   11.0308 C.ar    1  UNL1        0.1386
      2 C          64.4464   92.0714   10.7447 C.ar    1  UNL1        0.0369
      3 C          65.4544   92.4027   11.8050 C.ar    1  UNL1        0.0037
      4 C          65.3695   91.7472   13.1514 C.ar    1  UNL1        0.0077
      5 C          64.2767   90.7604   13.4376 C.ar    1  UNL1        0.0037
      6 C          63.2687   90.4291   12.3773 C.ar    1  UNL1        0.0369
      7 C          66.3775   92.0785   14.2118 C.ar    1  UNL1        0.0490
      8 C          67.8685   92.0467   14.0516 C.ar    1  UNL1        0.0292
      9 C          68.4840   92.4483   15.3592 C.ar    1  UNL1        0.1078
     10 N          67.3732   92.7283   16.3277 N.ar    1  UNL1       -0.2076
     11 S          66.0713   92.4997   15.6185 S.2     1  UNL1        0.0130
     12 O          62.3456   90.7533    9.9705 O.3     1  UNL1       -0.4755
     13 C          61.7032   89.3982    9.9436 C.3     1  UNL1        0.2054
     14 C          60.2555   89.2616    9.5753 C.3     1  UNL1        0.0473
     15 C          59.3906   87.1509    8.3315 C.3     1  UNL1        0.0001
     16 C          59.8677   88.5727    8.3005 C.3     1  UNL1        0.0038
@<TRIPOS>BOND
     1    15    16    1
     2    16    14    1
     3    14    13    1
     4    13    12    1
     5    12     1    1
     6     1     2   ar
     7     2     3   ar
     8     3     4   ar
     9     4     7    1
    10     7     8   ar
    11     8     9   ar
    12     9    10   ar
    13    10    11   ar
    14     4     5   ar
    15     5     6   ar
    16     6     1   ar
    17    11     7   ar
