@<TRIPOS>MOLECULE
*****
 30 34 0 0 0
SMALL
GASTEIGER

@<TRIPOS>ATOM
      1 C          63.2731   90.6390   11.3165 C.2     1  UNL1        0.2651
      2 O          63.0411   89.5934   12.3665 O.2     1  UNL1       -0.2684
      3 N          62.5064   90.5910   10.0280 N.am    1  UNL1       -0.2996
      4 H          62.6586   91.2773    9.3387 H       1  UNL1        0.1498
      5 C          65.7273   93.6442   11.2116 C.ar    1  UNL1        0.1239
      6 N          64.7275   92.7454   10.5464 N.ar    1  UNL1       -0.2260
      7 C          64.2717   91.7326   11.5547 C.ar    1  UNL1        0.1517
      8 C          64.9899   92.0055   12.8430 C.ar    1  UNL1        0.0872
      9 C          64.9409   91.3308   14.1818 C.ar    1  UNL1        0.0193
     10 C          65.7915   91.8375   15.3085 C.ar    1  UNL1        0.0031
     11 C          66.6912   93.0190   15.0965 C.ar    1  UNL1        0.0191
     12 C          66.7402   93.6936   13.7577 C.ar    1  UNL1        0.0811
     13 N          65.8895   93.1869   12.6310 N.ar    1  UNL1       -0.2921
     14 C          66.1432   96.2009   11.0099 C.3     1  UNL1        0.0079
     15 C          66.4399   94.7977   10.5701 C.3     1  UNL1        0.0573
     16 C          67.4491   94.5483    9.4888 C.3     1  UNL1        0.0079
     17 C          61.5078   89.4974    9.7898 C.3     1  UNL1        0.0898
     18 C          61.9233   88.0617    9.9170 C.3     1  UNL1        0.0224
     19 C          62.4500   86.8020    9.2961 C.3     1  UNL1        0.0191
     20 C          62.9483   85.4264    8.9652 C.3     1  UNL1        0.0721
     21 N          62.9225   84.6091   10.2227 N.3     1  UNL1       -0.2727
     22 C          62.4082   85.4795   11.3308 C.3     1  UNL1        0.0721
     23 C          62.1162   86.8348   10.7581 C.3     1  UNL1        0.0191
     24 C          63.3380   83.1734   10.3498 C.3     1  UNL1        0.0722
     25 C          63.3105   82.5005   11.6901 C.3     1  UNL1        0.0210
     26 C          63.9815   83.1450   12.8668 C.3     1  UNL1        0.0335
     27 C          63.9540   82.4721   14.2071 C.3     1  UNL1        0.1422
     28 O          63.2556   81.1548   14.3708 O.3     1  UNL1       -0.3538
     29 C          62.5846   80.5103   13.1941 C.3     1  UNL1        0.1422
     30 C          62.6121   81.1832   11.8538 C.3     1  UNL1        0.0335
@<TRIPOS>BOND
     1    14    15    1
     2    15    16    1
     3    15     5    1
     4     5     6   ar
     5     6     7   ar
     6     7     1    1
     7     1     2    2
     8     1     3   am
     9     3    17    1
    10    18    17    1
    11    18    19    1
    12    19    20    1
    13    20    21    1
    14    21    24    1
    15    24    25    1
    16    25    26    1
    17    26    27    1
    18    27    28    1
    19    28    29    1
    20    29    30    1
    21    21    22    1
    22    23    22    1
    23     7     8   ar
    24     8     9   ar
    25     9    10   ar
    26    10    11   ar
    27    11    12   ar
    28    12    13   ar
    29    13     5   ar
    30    23    18    1
    31    13     8   ar
    32    23    19    1
    33    30    25    1
    34     3     4    1
@<TRIPOS>MOLECULE
*****
 30 34 0 0 0
SMALL
GASTEIGER

@<TRIPOS>ATOM
      1 C          62.4158   86.3114   10.9381 C.2     1  UNL1        0.2651
      2 O          62.4446   86.4566    9.4455 O.2     1  UNL1       -0.2684
      3 N          62.1101   87.4994   11.8015 N.am    1  UNL1       -0.2996
      4 H          62.0913   87.4041   12.7812 H       1  UNL1        0.1498
      5 C          62.8563   82.5830   11.9233 C.ar    1  UNL1        0.1239
      6 N          62.4307   83.6384   10.9460 N.ar    1  UNL1       -0.2260
      7 C          62.6927   84.9782   11.5675 C.ar    1  UNL1        0.1517
      8 C          63.2802   84.7509   12.9288 C.ar    1  UNL1        0.0872
      9 C          63.7362   85.7006   13.9965 C.ar    1  UNL1        0.0193
     10 C          64.2932   85.1700   15.2842 C.ar    1  UNL1        0.0031
     11 C          64.3943   83.6897   15.5041 C.ar    1  UNL1        0.0191
     12 C          63.9384   82.7400   14.4364 C.ar    1  UNL1        0.0811
     13 N          63.3813   83.2706   13.1487 N.ar    1  UNL1       -0.2921
     14 C          63.0565   80.5179   10.3595 C.3     1  UNL1        0.0079
     15 C          62.7717   81.1004   11.7122 C.3     1  UNL1        0.0573
     16 C          62.4025   80.2001   12.8537 C.3     1  UNL1        0.0079
     17 C          61.8333   88.8325   11.1721 C.3     1  UNL1        0.0898
     18 C          62.7977   89.9657   11.3609 C.3     1  UNL1        0.0224
     19 C          63.5320   91.1520   10.8100 C.3     1  UNL1        0.0191
     20 C          64.3869   92.3564   10.5480 C.3     1  UNL1        0.0721
     21 N          65.1170   92.6911   11.8149 N.3     1  UNL1       -0.2727
     22 C          64.7133   91.6936   12.8599 C.3     1  UNL1        0.0721
     23 C          63.7337   90.7424   12.2388 C.3     1  UNL1        0.0191
     24 C          66.0814   93.8243   12.0036 C.3     1  UNL1        0.0722
     25 C          66.5698   94.5992   10.8158 C.3     1  UNL1        0.0210
     26 C          67.2936   93.8948    9.7067 C.3     1  UNL1        0.0335
     27 C          67.7820   94.6697    8.5189 C.3     1  UNL1        0.1422
     28 O          67.5466   96.1490    8.4399 O.3     1  UNL1       -0.3538
     29 C          66.8228   96.8534    9.5490 C.3     1  UNL1        0.1422
     30 C          66.3344   96.0785   10.7368 C.3     1  UNL1        0.0335
@<TRIPOS>BOND
     1    14    15    1
     2    15    16    1
     3    15     5    1
     4     5     6   ar
     5     6     7   ar
     6     7     1    1
     7     1     2    2
     8     1     3   am
     9     3    17    1
    10    18    17    1
    11    18    19    1
    12    19    20    1
    13    20    21    1
    14    21    24    1
    15    24    25    1
    16    25    26    1
    17    26    27    1
    18    27    28    1
    19    28    29    1
    20    29    30    1
    21    21    22    1
    22    23    22    1
    23     7     8   ar
    24     8     9   ar
    25     9    10   ar
    26    10    11   ar
    27    11    12   ar
    28    12    13   ar
    29    13     5   ar
    30    23    18    1
    31    13     8   ar
    32    23    19    1
    33    30    25    1
    34     3     4    1
@<TRIPOS>MOLECULE
*****
 30 34 0 0 0
SMALL
GASTEIGER

@<TRIPOS>ATOM
      1 C          63.0085   85.2679   15.1545 C.2     1  UNL1        0.2651
      2 O          62.4870   85.4329   16.5512 O.2     1  UNL1       -0.2684
      3 N          63.7933   86.3728   14.5115 N.am    1  UNL1       -0.2996
      4 H          64.1356   86.2645   13.5948 H       1  UNL1        0.1498
      5 C          61.9529   81.7774   13.8252 C.ar    1  UNL1        0.1239
      6 N          61.9638   82.8203   14.9032 N.ar    1  UNL1       -0.2260
      7 C          62.7453   83.9980   14.4008 C.ar    1  UNL1        0.1517
      8 C          63.2175   83.6828   13.0124 C.ar    1  UNL1        0.0872
      9 C          64.0300   84.4682   12.0261 C.ar    1  UNL1        0.0193
     10 C          64.3529   83.8812   10.6840 C.ar    1  UNL1        0.0031
     11 C          63.8632   82.5088   10.3283 C.ar    1  UNL1        0.0191
     12 C          63.0506   81.7234   11.3145 C.ar    1  UNL1        0.0811
     13 N          62.7277   82.3104   12.6566 N.ar    1  UNL1       -0.2921
     14 C          59.8273   80.3437   14.2455 C.3     1  UNL1        0.0079
     15 C          61.2846   80.4367   13.9022 C.3     1  UNL1        0.0573
     16 C          62.0734   79.1890   13.6360 C.3     1  UNL1        0.0079
     17 C          64.0565   87.6427   15.2653 C.3     1  UNL1        0.0898
     18 C          64.3488   88.9107   14.5192 C.3     1  UNL1        0.0224
     19 C          64.0799   89.8302   13.3651 C.3     1  UNL1        0.0191
     20 C          64.0353   90.9259   12.3415 C.3     1  UNL1        0.0721
     21 N          65.0517   91.9602   12.7250 N.3     1  UNL1       -0.2727
     22 C          65.7245   91.5039   13.9855 C.3     1  UNL1        0.0721
     23 C          65.1239   90.1875   14.3811 C.3     1  UNL1        0.0191
     24 C          65.3439   93.2282   11.9789 C.3     1  UNL1        0.0722
     25 C          66.4072   93.2479   10.9210 C.3     1  UNL1        0.0210
     26 C          67.3692   92.1030   10.8031 C.3     1  UNL1        0.0335
     27 C          68.4324   92.1227    9.7453 C.3     1  UNL1        0.1422
     28 O          68.5338   93.2872    8.8053 O.3     1  UNL1       -0.3538
     29 C          67.5718   94.4320    8.9232 C.3     1  UNL1        0.1422
     30 C          66.5086   94.4124    9.9810 C.3     1  UNL1        0.0335
@<TRIPOS>BOND
     1    14    15    1
     2    15    16    1
     3    15     5    1
     4     5     6   ar
     5     6     7   ar
     6     7     1    1
     7     1     2    2
     8     1     3   am
     9     3    17    1
    10    18    17    1
    11    18    19    1
    12    19    20    1
    13    20    21    1
    14    21    24    1
    15    24    25    1
    16    25    26    1
    17    26    27    1
    18    27    28    1
    19    28    29    1
    20    29    30    1
    21    21    22    1
    22    23    22    1
    23     7     8   ar
    24     8     9   ar
    25     9    10   ar
    26    10    11   ar
    27    11    12   ar
    28    12    13   ar
    29    13     5   ar
    30    23    18    1
    31    13     8   ar
    32    23    19    1
    33    30    25    1
    34     3     4    1
@<TRIPOS>MOLECULE
*****
 30 34 0 0 0
SMALL
GASTEIGER

@<TRIPOS>ATOM
      1 C          60.5971   86.8376    8.7049 C.2     1  UNL1        0.2651
      2 O          60.6635   85.8166    7.6080 O.2     1  UNL1       -0.2684
      3 N          59.7039   88.0343    8.5625 N.am    1  UNL1       -0.2996
      4 H          59.6603   88.7044    9.2824 H       1  UNL1        0.1498
      5 C          62.6061   85.6488   11.8058 C.ar    1  UNL1        0.1239
      6 N          61.7640   85.3564   10.5994 N.ar    1  UNL1       -0.2260
      7 C          61.4240   86.6620    9.9440 C.ar    1  UNL1        0.1517
      8 C          62.0560   87.7614   10.7453 C.ar    1  UNL1        0.0872
      9 C          62.0605   89.2518   10.5758 C.ar    1  UNL1        0.0193
     10 C          62.7957   90.1159   11.5570 C.ar    1  UNL1        0.0031
     11 C          63.5264   89.4896   12.7077 C.ar    1  UNL1        0.0191
     12 C          63.5218   87.9993   12.8771 C.ar    1  UNL1        0.0811
     13 N          62.7866   87.1351   11.8960 N.ar    1  UNL1       -0.2921
     14 C          64.2467   83.6951   12.2981 C.3     1  UNL1        0.0079
     15 C          63.1690   84.6331   12.7553 C.3     1  UNL1        0.0573
     16 C          62.6543   84.5553   14.1621 C.3     1  UNL1        0.0079
     17 C          58.8770   88.2098    7.3234 C.3     1  UNL1        0.0898
     18 C          59.1126   89.3879    6.4253 C.3     1  UNL1        0.0224
     19 C          60.0499   90.2513    5.6341 C.3     1  UNL1        0.0191
     20 C          60.7272   91.2748    4.7717 C.3     1  UNL1        0.0721
     21 N          59.6793   92.2212    4.2656 N.3     1  UNL1       -0.2727
     22 C          58.3543   91.7826    4.8152 C.3     1  UNL1        0.0721
     23 C          58.5834   90.5651    5.6610 C.3     1  UNL1        0.0191
     24 C          59.9149   93.3993    3.3675 C.3     1  UNL1        0.0722
     25 C          60.4989   93.1956    2.0009 C.3     1  UNL1        0.0210
     26 C          61.9697   93.3874    1.7776 C.3     1  UNL1        0.0335
     27 C          62.5536   93.1837    0.4110 C.3     1  UNL1        0.1422
     28 O          61.6668   92.7883   -0.7322 O.3     1  UNL1       -0.3538
     29 C          60.1960   92.5965   -0.5089 C.3     1  UNL1        0.1422
     30 C          59.6120   92.8002    0.8577 C.3     1  UNL1        0.0335
@<TRIPOS>BOND
     1    14    15    1
     2    15    16    1
     3    15     5    1
     4     5     6   ar
     5     6     7   ar
     6     7     1    1
     7     1     2    2
     8     1     3   am
     9     3    17    1
    10    18    17    1
    11    18    19    1
    12    19    20    1
    13    20    21    1
    14    21    24    1
    15    24    25    1
    16    25    26    1
    17    26    27    1
    18    27    28    1
    19    28    29    1
    20    29    30    1
    21    21    22    1
    22    23    22    1
    23     7     8   ar
    24     8     9   ar
    25     9    10   ar
    26    10    11   ar
    27    11    12   ar
    28    12    13   ar
    29    13     5   ar
    30    23    18    1
    31    13     8   ar
    32    23    19    1
    33    30    25    1
    34     3     4    1
@<TRIPOS>MOLECULE
*****
 30 34 0 0 0
SMALL
GASTEIGER

@<TRIPOS>ATOM
      1 C          59.1678   91.9029    4.4002 C.2     1  UNL1        0.2651
      2 O          57.7180   92.2765    4.4914 O.2     1  UNL1       -0.2684
      3 N          59.7054   90.7755    5.2309 N.am    1  UNL1       -0.2996
      4 H          60.6570   90.5303    5.1711 H       1  UNL1        0.1498
      5 C          60.9438   94.3228    1.9396 C.ar    1  UNL1        0.1239
      6 N          59.7425   93.9190    2.7418 N.ar    1  UNL1       -0.2260
      7 C          60.0800   92.6567    3.4784 C.ar    1  UNL1        0.1517
      8 C          61.4900   92.2803    3.1314 C.ar    1  UNL1        0.0872
      9 C          62.3567   91.1331    3.5586 C.ar    1  UNL1        0.0193
     10 C          63.7573   91.0156    3.0347 C.ar    1  UNL1        0.0031
     11 C          64.2911   92.0453    2.0836 C.ar    1  UNL1        0.0191
     12 C          63.4244   93.1926    1.6564 C.ar    1  UNL1        0.0811
     13 N          62.0239   93.3101    2.1804 N.ar    1  UNL1       -0.2921
     14 C          60.2397   95.6013   -0.2098 C.3     1  UNL1        0.0079
     15 C          61.0471   95.5279    1.0523 C.3     1  UNL1        0.0573
     16 C          61.9576   96.6594    1.4270 C.3     1  UNL1        0.0079
     17 C          58.7932   90.0218    6.1527 C.3     1  UNL1        0.0898
     18 C          59.3659   89.2158    7.2807 C.3     1  UNL1        0.0224
     19 C          59.5580   87.8962    7.9677 C.3     1  UNL1        0.0191
     20 C          59.9148   86.7455    8.8614 C.3     1  UNL1        0.0721
     21 N          60.7430   87.2772    9.9933 N.3     1  UNL1       -0.2727
     22 C          60.8980   88.7565    9.7993 C.3     1  UNL1        0.0721
     23 C          60.1656   89.1391    8.5474 C.3     1  UNL1        0.0191
     24 C          61.3156   86.4711   11.1213 C.3     1  UNL1        0.0722
     25 C          62.2819   85.3603   10.8342 C.3     1  UNL1        0.0210
     26 C          62.7214   84.4446   11.9380 C.3     1  UNL1        0.0335
     27 C          63.6877   83.3338   11.6510 C.3     1  UNL1        0.1422
     28 O          64.2144   83.1386   10.2602 O.3     1  UNL1       -0.3538
     29 C          63.7749   84.0542    9.1564 C.3     1  UNL1        0.1422
     30 C          62.8086   85.1651    9.4434 C.3     1  UNL1        0.0335
@<TRIPOS>BOND
     1    14    15    1
     2    15    16    1
     3    15     5    1
     4     5     6   ar
     5     6     7   ar
     6     7     1    1
     7     1     2    2
     8     1     3   am
     9     3    17    1
    10    18    17    1
    11    18    19    1
    12    19    20    1
    13    20    21    1
    14    21    24    1
    15    24    25    1
    16    25    26    1
    17    26    27    1
    18    27    28    1
    19    28    29    1
    20    29    30    1
    21    21    22    1
    22    23    22    1
    23     7     8   ar
    24     8     9   ar
    25     9    10   ar
    26    10    11   ar
    27    11    12   ar
    28    12    13   ar
    29    13     5   ar
    30    23    18    1
    31    13     8   ar
    32    23    19    1
    33    30    25    1
    34     3     4    1
@<TRIPOS>MOLECULE
*****
 30 34 0 0 0
SMALL
GASTEIGER

@<TRIPOS>ATOM
      1 C          63.1744   84.8608   15.6153 C.2     1  UNL1        0.2651
      2 O          64.5927   85.3411   15.7015 O.2     1  UNL1       -0.2684
      3 N          62.0988   85.5545   16.3977 N.am    1  UNL1       -0.2996
      4 H          61.1678   85.2392   16.3412 H       1  UNL1        0.1498
      5 C          61.8904   81.5908   13.9650 C.ar    1  UNL1        0.1239
      6 N          61.9609   82.5283   15.1338 N.ar    1  UNL1       -0.2260
      7 C          62.8315   83.6868   14.7468 C.ar    1  UNL1        0.1517
      8 C          63.2991   83.4654   13.3389 C.ar    1  UNL1        0.0872
      9 C          64.1793   84.2760   12.4344 C.ar    1  UNL1        0.0193
     10 C          64.4779   83.7911   11.0467 C.ar    1  UNL1        0.0031
     11 C          63.8962   82.4956   10.5635 C.ar    1  UNL1        0.0191
     12 C          63.0160   81.6851   11.4680 C.ar    1  UNL1        0.0811
     13 N          62.7174   82.1699   12.8557 N.ar    1  UNL1       -0.2921
     14 C          59.6621   80.2828   14.2372 C.3     1  UNL1        0.0079
     15 C          61.1269   80.3006   13.9144 C.3     1  UNL1        0.0573
     16 C          61.8281   79.0283   13.5411 C.3     1  UNL1        0.0079
     17 C          62.4417   86.7284   17.2662 C.3     1  UNL1        0.0898
     18 C          63.0661   87.9511   16.6621 C.3     1  UNL1        0.0224
     19 C          63.9148   88.5872   15.6013 C.3     1  UNL1        0.0191
     20 C          64.6990   89.4887   14.6945 C.3     1  UNL1        0.0721
     21 N          64.5680   90.8916   15.2092 N.3     1  UNL1       -0.2727
     22 C          63.7029   90.8571   16.4341 C.3     1  UNL1        0.0721
     23 C          63.2992   89.4329   16.6764 C.3     1  UNL1        0.0191
     24 C          65.1925   92.1142   14.6050 C.3     1  UNL1        0.0722
     25 C          65.3165   92.2347   13.1150 C.3     1  UNL1        0.0210
     26 C          64.2306   91.7039   12.2267 C.3     1  UNL1        0.0335
     27 C          64.3545   91.8244   10.7367 C.3     1  UNL1        0.1422
     28 O          65.5642   92.4757   10.1349 O.3     1  UNL1       -0.3538
     29 C          66.6501   93.0066   11.0232 C.3     1  UNL1        0.1422
     30 C          66.5262   92.8861   12.5132 C.3     1  UNL1        0.0335
@<TRIPOS>BOND
     1    14    15    1
     2    15    16    1
     3    15     5    1
     4     5     6   ar
     5     6     7   ar
     6     7     1    1
     7     1     2    2
     8     1     3   am
     9     3    17    1
    10    18    17    1
    11    18    19    1
    12    19    20    1
    13    20    21    1
    14    21    24    1
    15    24    25    1
    16    25    26    1
    17    26    27    1
    18    27    28    1
    19    28    29    1
    20    29    30    1
    21    21    22    1
    22    23    22    1
    23     7     8   ar
    24     8     9   ar
    25     9    10   ar
    26    10    11   ar
    27    11    12   ar
    28    12    13   ar
    29    13     5   ar
    30    23    18    1
    31    13     8   ar
    32    23    19    1
    33    30    25    1
    34     3     4    1
@<TRIPOS>MOLECULE
*****
 30 34 0 0 0
SMALL
GASTEIGER

@<TRIPOS>ATOM
      1 C          62.2936   85.7881   10.8056 C.2     1  UNL1        0.2651
      2 O          62.8599   86.1104    9.4546 O.2     1  UNL1       -0.2684
      3 N          61.4503   86.7982   11.5258 N.am    1  UNL1       -0.2996
      4 H          61.0786   86.5867   12.4126 H       1  UNL1        0.1498
      5 C          62.7701   82.0615   11.7806 C.ar    1  UNL1        0.1239
      6 N          62.3669   83.1161   10.7931 N.ar    1  UNL1       -0.2260
      7 C          62.5705   84.4557   11.4366 C.ar    1  UNL1        0.1517
      8 C          63.0995   84.2290   12.8218 C.ar    1  UNL1        0.0872
      9 C          63.4847   85.1787   13.9169 C.ar    1  UNL1        0.0193
     10 C          63.9934   84.6488   15.2247 C.ar    1  UNL1        0.0031
     11 C          64.1168   83.1691   15.4374 C.ar    1  UNL1        0.0191
     12 C          63.7315   82.2193   14.3422 C.ar    1  UNL1        0.0811
     13 N          63.2229   82.7492   13.0344 N.ar    1  UNL1       -0.2921
     14 C          62.9538   80.0239   10.1790 C.3     1  UNL1        0.0079
     15 C          62.7280   80.5793   11.5541 C.3     1  UNL1        0.0573
     16 C          62.4602   79.6523   12.7025 C.3     1  UNL1        0.0079
     17 C          61.1735   88.1307   10.8949 C.3     1  UNL1        0.0898
     18 C          62.1312   89.2679   11.0934 C.3     1  UNL1        0.0224
     19 C          62.8681   90.4556   10.5492 C.3     1  UNL1        0.0191
     20 C          63.7218   91.6626   10.2954 C.3     1  UNL1        0.0721
     21 N          64.4344   92.0029   11.5707 N.3     1  UNL1       -0.2727
     22 C          64.0211   91.0062   12.6127 C.3     1  UNL1        0.0721
     23 C          63.0531   90.0500   11.9814 C.3     1  UNL1        0.0191
     24 C          65.3921   93.1402   11.7691 C.3     1  UNL1        0.0722
     25 C          66.5296   93.0025   12.7371 C.3     1  UNL1        0.0210
     26 C          66.5316   93.7964   14.0099 C.3     1  UNL1        0.0335
     27 C          67.6691   93.6588   14.9779 C.3     1  UNL1        0.1422
     28 O          68.8046   92.7273   14.6733 O.3     1  UNL1       -0.3538
     29 C          68.8027   91.9335   13.4006 C.3     1  UNL1        0.1422
     30 C          67.6652   92.0711   12.4326 C.3     1  UNL1        0.0335
@<TRIPOS>BOND
     1    14    15    1
     2    15    16    1
     3    15     5    1
     4     5     6   ar
     5     6     7   ar
     6     7     1    1
     7     1     2    2
     8     1     3   am
     9     3    17    1
    10    18    17    1
    11    18    19    1
    12    19    20    1
    13    20    21    1
    14    21    24    1
    15    24    25    1
    16    25    26    1
    17    26    27    1
    18    27    28    1
    19    28    29    1
    20    29    30    1
    21    21    22    1
    22    23    22    1
    23     7     8   ar
    24     8     9   ar
    25     9    10   ar
    26    10    11   ar
    27    11    12   ar
    28    12    13   ar
    29    13     5   ar
    30    23    18    1
    31    13     8   ar
    32    23    19    1
    33    30    25    1
    34     3     4    1
@<TRIPOS>MOLECULE
*****
 30 34 0 0 0
SMALL
GASTEIGER

@<TRIPOS>ATOM
      1 C          59.0978   91.0649    5.1798 C.2     1  UNL1        0.2651
      2 O          57.6687   91.2633    5.5899 O.2     1  UNL1       -0.2684
      3 N          59.9700   90.1089    5.9384 N.am    1  UNL1       -0.2996
      4 H          60.9080   89.9786    5.6692 H       1  UNL1        0.1498
      5 C          59.8412   93.3032    2.0972 C.ar    1  UNL1        0.1239
      6 N          58.8969   92.7773    3.1372 N.ar    1  UNL1       -0.2260
      7 C          59.6548   91.8225    4.0111 C.ar    1  UNL1        0.1517
      8 C          61.0676   91.7583    3.5113 C.ar    1  UNL1        0.0872
      9 C          62.2641   90.9847    3.9804 C.ar    1  UNL1        0.0193
     10 C          63.5757   91.1263    3.2666 C.ar    1  UNL1        0.0031
     11 C          63.6909   92.0414    2.0837 C.ar    1  UNL1        0.0191
     12 C          62.4945   92.8149    1.6146 C.ar    1  UNL1        0.0811
     13 N          61.1829   92.6734    2.3284 N.ar    1  UNL1       -0.2921
     14 C          60.0283   95.6897    1.0872 C.3     1  UNL1        0.0079
     15 C          59.5034   94.2863    1.0158 C.3     1  UNL1        0.0573
     16 C          58.6406   93.8661   -0.1370 C.3     1  UNL1        0.0079
     17 C          59.4129   89.3513    7.1071 C.3     1  UNL1        0.0898
     18 C          60.1125   89.3976    8.4331 C.3     1  UNL1        0.0224
     19 C          60.2115   89.9309    9.8316 C.3     1  UNL1        0.0191
     20 C          60.5636   90.2797   11.2474 C.3     1  UNL1        0.0721
     21 N          61.7949   89.5093   11.6221 N.3     1  UNL1       -0.2727
     22 C          62.2037   88.6843   10.4380 C.3     1  UNL1        0.0721
     23 C          61.2252   88.9448    9.3314 C.3     1  UNL1        0.0191
     24 C          62.4944   89.5557   12.9482 C.3     1  UNL1        0.0722
     25 C          63.7146   90.4104   13.1229 C.3     1  UNL1        0.0210
     26 C          64.5750   90.2493   14.3410 C.3     1  UNL1        0.0335
     27 C          65.7952   91.1040   14.5157 C.3     1  UNL1        0.1422
     28 O          66.1551   92.1198   13.4724 O.3     1  UNL1       -0.3538
     29 C          65.2947   92.2810   12.2544 C.3     1  UNL1        0.1422
     30 C          64.0745   91.4263   12.0796 C.3     1  UNL1        0.0335
@<TRIPOS>BOND
     1    14    15    1
     2    15    16    1
     3    15     5    1
     4     5     6   ar
     5     6     7   ar
     6     7     1    1
     7     1     2    2
     8     1     3   am
     9     3    17    1
    10    18    17    1
    11    18    19    1
    12    19    20    1
    13    20    21    1
    14    21    24    1
    15    24    25    1
    16    25    26    1
    17    26    27    1
    18    27    28    1
    19    28    29    1
    20    29    30    1
    21    21    22    1
    22    23    22    1
    23     7     8   ar
    24     8     9   ar
    25     9    10   ar
    26    10    11   ar
    27    11    12   ar
    28    12    13   ar
    29    13     5   ar
    30    23    18    1
    31    13     8   ar
    32    23    19    1
    33    30    25    1
    34     3     4    1
@<TRIPOS>MOLECULE
*****
 30 34 0 0 0
SMALL
GASTEIGER

@<TRIPOS>ATOM
      1 C          60.3819   89.2337    9.5606 C.2     1  UNL1        0.2651
      2 O          59.4897   90.4372    9.6333 O.2     1  UNL1       -0.2684
      3 N          60.2336   88.2573    8.4315 N.am    1  UNL1       -0.2996
      4 H          60.8192   87.4673    8.3837 H       1  UNL1        0.1498
      5 C          63.1185   89.3978   12.3082 C.ar    1  UNL1        0.1239
      6 N          62.1875   90.0720   11.3445 N.ar    1  UNL1       -0.2260
      7 C          61.4225   89.0065   10.6168 C.ar    1  UNL1        0.1517
      8 C          61.8806   87.6738   11.1309 C.ar    1  UNL1        0.0872
      9 C          61.4788   86.2714   10.7821 C.ar    1  UNL1        0.0193
     10 C          62.1251   85.1109   11.4787 C.ar    1  UNL1        0.0031
     11 C          63.1734   85.3528   12.5240 C.ar    1  UNL1        0.0191
     12 C          63.5752   86.7552   12.8728 C.ar    1  UNL1        0.0811
     13 N          62.9289   87.9157   12.1762 N.ar    1  UNL1       -0.2921
     14 C          64.7004   91.3881   12.8437 C.3     1  UNL1        0.0079
     15 C          64.0718   90.0851   13.2403 C.3     1  UNL1        0.0573
     16 C          64.3966   89.4695   14.5690 C.3     1  UNL1        0.0079
     17 C          59.1931   88.4845    7.3753 C.3     1  UNL1        0.0898
     18 C          59.3440   89.6189    6.4057 C.3     1  UNL1        0.0224
     19 C          60.2115   90.4675    5.5240 C.3     1  UNL1        0.0191
     20 C          60.8104   91.4637    4.5758 C.3     1  UNL1        0.0721
     21 N          59.7071   92.3472    4.0738 N.3     1  UNL1       -0.2727
     22 C          58.4263   91.8971    4.7117 C.3     1  UNL1        0.0721
     23 C          58.7380   90.7354    5.6079 C.3     1  UNL1        0.0191
     24 C          59.8581   93.4817    3.1042 C.3     1  UNL1        0.0722
     25 C          60.5013   93.2470    1.7696 C.3     1  UNL1        0.0210
     26 C          59.7040   92.6519    0.6470 C.3     1  UNL1        0.0335
     27 C          60.3472   92.4173   -0.6876 C.3     1  UNL1        0.1422
     28 O          61.7878   92.7776   -0.8997 O.3     1  UNL1       -0.3538
     29 C          62.5851   93.3726    0.2229 C.3     1  UNL1        0.1422
     30 C          61.9418   93.6073    1.5575 C.3     1  UNL1        0.0335
@<TRIPOS>BOND
     1    14    15    1
     2    15    16    1
     3    15     5    1
     4     5     6   ar
     5     6     7   ar
     6     7     1    1
     7     1     2    2
     8     1     3   am
     9     3    17    1
    10    18    17    1
    11    18    19    1
    12    19    20    1
    13    20    21    1
    14    21    24    1
    15    24    25    1
    16    25    26    1
    17    26    27    1
    18    27    28    1
    19    28    29    1
    20    29    30    1
    21    21    22    1
    22    23    22    1
    23     7     8   ar
    24     8     9   ar
    25     9    10   ar
    26    10    11   ar
    27    11    12   ar
    28    12    13   ar
    29    13     5   ar
    30    23    18    1
    31    13     8   ar
    32    23    19    1
    33    30    25    1
    34     3     4    1
