@<TRIPOS>MOLECULE
*****
 38 42 0 0 0
SMALL
GASTEIGER

@<TRIPOS>ATOM
      1 O          63.9820   81.1294   14.1374 O.2     1  UNL1       -0.2698
      2 C          63.9583   82.6200   14.3032 C.2     1  UNL1        0.2496
      3 N          64.3486   83.3761   15.5385 N.am    1  UNL1       -0.2804
      4 C          64.1715   84.8396   15.2616 C.ar    1  UNL1        0.0506
      5 C          64.4008   86.0562   16.1085 C.ar    1  UNL1        0.0148
      6 C          64.1303   87.4214   15.5488 C.ar    1  UNL1        0.0058
      7 C          63.6305   87.5698   14.1424 C.ar    1  UNL1        0.0534
      8 C          63.4012   86.3532   13.2955 C.ar    1  UNL1        0.0059
      9 C          63.6717   84.9881   13.8552 C.ar    1  UNL1        0.0181
     10 C          63.5399   83.6163   13.2629 C.2     1  UNL1        0.0577
     11 C          63.0719   83.2969   11.8740 C.2     1  UNL1        0.0383
     12 H          64.6654   82.9810   16.3828 H       1  UNL1        0.1552
     13 C          62.6845   84.4046   10.9397 C.ar    1  UNL1        0.0030
     14 C          61.6049   85.3707   11.3286 C.ar    1  UNL1        0.0001
     15 C          61.2175   86.4784   10.3944 C.ar    1  UNL1        0.0000
     16 C          61.9097   86.6201    9.0712 C.ar    1  UNL1        0.0000
     17 C          62.9893   85.6540    8.6823 C.ar    1  UNL1        0.0000
     18 C          63.3767   84.5463    9.6165 C.ar    1  UNL1        0.0001
     19 C          62.9913   81.8697   11.4193 C.ar    1  UNL1        0.1407
     20 N          63.4568   81.3382   10.0962 N.ar    1  UNL1       -0.2254
     21 C          63.1842   79.8635   10.0671 C.ar    1  UNL1        0.1189
     22 C          62.5501   79.4835   11.3723 C.ar    1  UNL1        0.0945
     23 N          62.4309   80.7234   12.2080 N.ar    1  UNL1       -0.3361
     24 H          62.0514   80.7757   13.1149 H       1  UNL1        0.1674
     25 C          63.3600   88.9350   13.5827 C.2     1  UNL1        0.2461
     26 O          62.8528   90.0259   14.4787 O.2     1  UNL1       -0.2701
     27 N          63.5967   89.2094   12.1272 N.am    1  UNL1       -0.2965
     28 H          63.9296   88.4934   11.5391 H       1  UNL1        0.1501
     29 CA         63.3262   90.5746   11.5676 C.3     1  UNL1        0.1239
     30 C          64.3692   91.6476   11.6708 C.ar    1  UNL1       -0.0021
     31 C          64.7280   92.4633   10.4641 C.ar    1  UNL1       -0.0026
     32 C          65.7710   93.5363   10.5673 C.ar    1  UNL1       -0.0003
     33 C          66.4552   93.7938   11.8772 C.ar    1  UNL1       -0.0000
     34 C          66.0963   92.9781   13.0838 C.ar    1  UNL1       -0.0003
     35 C          65.0533   91.9050   12.9806 C.ar    1  UNL1       -0.0026
     36 C          62.0126   90.8667   10.9048 C.3     1  UNL1        0.1611
     37 O          60.7286   90.5477   11.6115 O.3     1  UNL1       -0.3799
     38 H          60.6474   89.5868   11.7164 H       1  UNL1        0.2105
@<TRIPOS>BOND
     1     1     2    2
     2     2     3   am
     3     3     4    1
     4     4     5   ar
     5     5     6   ar
     6     6     7   ar
     7     7    25    1
     8    25    26    2
     9    25    27   am
    10    27    29    1
    11    29    36    1
    12    36    37    1
    13    29    30    1
    14    30    31   ar
    15    31    32   ar
    16    32    33   ar
    17    33    34   ar
    18    34    35   ar
    19     7     8   ar
    20     8     9   ar
    21     9    10    1
    22    10    11    2
    23    11    13    1
    24    13    14   ar
    25    14    15   ar
    26    15    16   ar
    27    16    17   ar
    28    17    18   ar
    29    11    19    1
    30    19    20   ar
    31    20    21   ar
    32    21    22   ar
    33    22    23   ar
    34    10     2    1
    35    18    13   ar
    36    23    19   ar
    37     9     4   ar
    38    35    30   ar
    39     3    12    1
    40    27    28    1
    41    37    38    1
    42    23    24    1
@<TRIPOS>MOLECULE
*****
 38 42 0 0 0
SMALL
GASTEIGER

@<TRIPOS>ATOM
      1 O          63.6401   82.6083   15.4851 O.2     1  UNL1       -0.2698
      2 C          63.7189   84.0693   15.1544 C.2     1  UNL1        0.2496
      3 N          64.1638   85.1605   16.0824 N.am    1  UNL1       -0.2804
      4 C          64.0866   86.4612   15.3392 C.ar    1  UNL1        0.0506
      5 C          64.4011   87.8701   15.7465 C.ar    1  UNL1        0.0148
      6 C          64.2231   88.9916   14.7665 C.ar    1  UNL1        0.0058
      7 C          63.7306   88.7042   13.3791 C.ar    1  UNL1        0.0534
      8 C          63.4160   87.2953   12.9718 C.ar    1  UNL1        0.0059
      9 C          63.5940   86.1738   13.9519 C.ar    1  UNL1        0.0181
     10 C          63.3668   84.6955   13.8377 C.2     1  UNL1        0.0577
     11 C          62.8740   83.9707   12.6204 C.2     1  UNL1        0.0383
     12 H          64.4552   85.0436   17.0155 H       1  UNL1        0.1552
     13 C          62.5607   84.7346   11.3681 C.ar    1  UNL1        0.0030
     14 C          63.3613   84.4939   10.1226 C.ar    1  UNL1        0.0001
     15 C          63.0481   85.2578    8.8703 C.ar    1  UNL1        0.0000
     16 C          61.9342   86.2625    8.8634 C.ar    1  UNL1        0.0000
     17 C          61.1336   86.5031   10.1088 C.ar    1  UNL1        0.0000
     18 C          61.4468   85.7392   11.3612 C.ar    1  UNL1        0.0001
     19 C          62.6944   82.4818   12.6553 C.ar    1  UNL1        0.1407
     20 N          63.3808   81.4898   11.7639 N.ar    1  UNL1       -0.2254
     21 C          62.9076   80.1186   12.1455 C.ar    1  UNL1        0.1189
     22 C          61.9287   80.2630   13.2728 C.ar    1  UNL1        0.0945
     23 N          61.7970   81.7236   13.5879 N.ar    1  UNL1       -0.3361
     24 H          61.2223   82.1158   14.2845 H       1  UNL1        0.1674
     25 C          63.5526   89.8258   12.3991 C.2     1  UNL1        0.2461
     26 O          62.2034   90.0909   11.7996 O.2     1  UNL1       -0.2701
     27 N          64.7238   90.6822   12.0185 N.am    1  UNL1       -0.2965
     28 H          65.6093   90.5082   12.4120 H       1  UNL1        0.1501
     29 CA         64.5458   91.8038   11.0385 C.3     1  UNL1        0.1239
     30 C          65.1874   93.1347   11.2972 C.ar    1  UNL1       -0.0021
     31 C          65.8407   93.4080   12.6194 C.ar    1  UNL1       -0.0026
     32 C          66.4823   94.7389   12.8781 C.ar    1  UNL1       -0.0003
     33 C          66.4706   95.7966   11.8145 C.ar    1  UNL1       -0.0000
     34 C          65.8173   95.5233   10.4922 C.ar    1  UNL1       -0.0003
     35 C          65.1757   94.1923   10.2335 C.ar    1  UNL1       -0.0026
     36 C          63.7262   91.5943    9.7998 C.3     1  UNL1        0.1611
     37 O          62.2301   91.5379    9.8910 O.3     1  UNL1       -0.3799
     38 H          61.9663   90.7522   10.3949 H       1  UNL1        0.2105
@<TRIPOS>BOND
     1     1     2    2
     2     2     3   am
     3     3     4    1
     4     4     5   ar
     5     5     6   ar
     6     6     7   ar
     7     7    25    1
     8    25    26    2
     9    25    27   am
    10    27    29    1
    11    29    36    1
    12    36    37    1
    13    29    30    1
    14    30    31   ar
    15    31    32   ar
    16    32    33   ar
    17    33    34   ar
    18    34    35   ar
    19     7     8   ar
    20     8     9   ar
    21     9    10    1
    22    10    11    2
    23    11    13    1
    24    13    14   ar
    25    14    15   ar
    26    15    16   ar
    27    16    17   ar
    28    17    18   ar
    29    11    19    1
    30    19    20   ar
    31    20    21   ar
    32    21    22   ar
    33    22    23   ar
    34    10     2    1
    35    18    13   ar
    36    23    19   ar
    37     9     4   ar
    38    35    30   ar
    39     3    12    1
    40    27    28    1
    41    37    38    1
    42    23    24    1
@<TRIPOS>MOLECULE
*****
 38 42 0 0 0
SMALL
GASTEIGER

@<TRIPOS>ATOM
      1 O          62.0333   82.6634   10.3242 O.2     1  UNL1       -0.2698
      2 C          62.2401   84.1292   10.5667 C.2     1  UNL1        0.2496
      3 N          62.1396   85.2159    9.5377 N.am    1  UNL1       -0.2804
      4 C          62.4211   86.5239   10.2158 C.ar    1  UNL1        0.0506
      5 C          62.4630   87.9324    9.7017 C.ar    1  UNL1        0.0148
      6 C          62.7793   89.0626   10.6358 C.ar    1  UNL1        0.0058
      7 C          63.0537   88.7843   12.0840 C.ar    1  UNL1        0.0534
      8 C          63.0119   87.3758   12.5981 C.ar    1  UNL1        0.0059
      9 C          62.6956   86.2456   11.6640 C.ar    1  UNL1        0.0181
     10 C          62.5837   84.7656   11.8808 C.2     1  UNL1        0.0577
     11 C          62.7808   84.0480   13.1832 C.2     1  UNL1        0.0383
     12 H          61.9264   85.0924    8.5845 H       1  UNL1        0.1552
     13 C          63.1231   84.8218   14.4216 C.ar    1  UNL1        0.0030
     14 C          64.4273   85.5576   14.5098 C.ar    1  UNL1        0.0001
     15 C          64.7697   86.3315   15.7483 C.ar    1  UNL1        0.0000
     16 C          63.8078   86.3697   16.8987 C.ar    1  UNL1        0.0000
     17 C          62.5036   85.6340   16.8105 C.ar    1  UNL1        0.0000
     18 C          62.1612   84.8600   15.5720 C.ar    1  UNL1        0.0001
     19 C          62.6355   82.5563   13.2471 C.ar    1  UNL1        0.1407
     20 N          61.5889   81.8045   14.0148 N.ar    1  UNL1       -0.2254
     21 C          61.8180   80.3382   13.7967 C.ar    1  UNL1        0.1189
     22 C          63.0061   80.1838   12.8942 C.ar    1  UNL1        0.0945
     23 N          63.5114   81.5547   12.5546 N.ar    1  UNL1       -0.3361
     24 H          64.2825   81.7609   11.9783 H       1  UNL1        0.1674
     25 C          63.3700   89.9146   13.0181 C.2     1  UNL1        0.2461
     26 O          62.8755   91.2981   12.7159 O.2     1  UNL1       -0.2701
     27 N          64.1809   89.6613   14.2544 N.am    1  UNL1       -0.2965
     28 H          64.5054   88.7533   14.4527 H       1  UNL1        0.1501
     29 CA         64.4972   90.7916   15.1885 C.3     1  UNL1        0.1239
     30 C          65.8018   91.5218   15.0675 C.ar    1  UNL1       -0.0021
     31 C          66.2653   92.4182   16.1774 C.ar    1  UNL1       -0.0026
     32 C          67.5699   93.1484   16.0564 C.ar    1  UNL1       -0.0003
     33 C          68.4112   92.9822   14.8256 C.ar    1  UNL1       -0.0000
     34 C          67.9477   92.0858   13.7158 C.ar    1  UNL1       -0.0003
     35 C          66.6430   91.3556   13.8368 C.ar    1  UNL1       -0.0026
     36 C          63.5088   91.1916   16.2435 C.3     1  UNL1        0.1611
     37 O          63.0147   90.1770   17.2316 O.3     1  UNL1       -0.3799
     38 H          62.4939   89.5020   16.7689 H       1  UNL1        0.2105
@<TRIPOS>BOND
     1     1     2    2
     2     2     3   am
     3     3     4    1
     4     4     5   ar
     5     5     6   ar
     6     6     7   ar
     7     7    25    1
     8    25    26    2
     9    25    27   am
    10    27    29    1
    11    29    36    1
    12    36    37    1
    13    29    30    1
    14    30    31   ar
    15    31    32   ar
    16    32    33   ar
    17    33    34   ar
    18    34    35   ar
    19     7     8   ar
    20     8     9   ar
    21     9    10    1
    22    10    11    2
    23    11    13    1
    24    13    14   ar
    25    14    15   ar
    26    15    16   ar
    27    16    17   ar
    28    17    18   ar
    29    11    19    1
    30    19    20   ar
    31    20    21   ar
    32    21    22   ar
    33    22    23   ar
    34    10     2    1
    35    18    13   ar
    36    23    19   ar
    37     9     4   ar
    38    35    30   ar
    39     3    12    1
    40    27    28    1
    41    37    38    1
    42    23    24    1
@<TRIPOS>MOLECULE
*****
 38 42 0 0 0
SMALL
GASTEIGER

@<TRIPOS>ATOM
      1 O          64.2433   92.4558   12.7675 O.2     1  UNL1       -0.2698
      2 C          63.7941   91.1058   12.2925 C.2     1  UNL1        0.2496
      3 N          63.3356   90.7669   10.9051 N.am    1  UNL1       -0.2804
      4 C          62.9827   89.3093   10.8766 C.ar    1  UNL1        0.0506
      5 C          62.4735   88.4212    9.7803 C.ar    1  UNL1        0.0148
      6 C          62.2047   86.9710   10.0539 C.ar    1  UNL1        0.0058
      7 C          62.4451   86.4091   11.4237 C.ar    1  UNL1        0.0534
      8 C          62.9543   87.2972   12.5199 C.ar    1  UNL1        0.0059
      9 C          63.2231   88.7473   12.2464 C.ar    1  UNL1        0.0181
     10 C          63.7246   89.8576   13.1215 C.2     1  UNL1        0.0577
     11 C          64.0921   89.7403   14.5710 C.2     1  UNL1        0.0383
     12 H          63.2766   91.3915   10.1464 H       1  UNL1        0.1552
     13 C          63.9702   88.4194   15.2711 C.ar    1  UNL1        0.0030
     14 C          64.7277   87.2285   14.7630 C.ar    1  UNL1        0.0001
     15 C          64.6058   85.9075   15.4631 C.ar    1  UNL1        0.0000
     16 C          63.7265   85.7774   16.6714 C.ar    1  UNL1        0.0000
     17 C          62.9691   86.9682   17.1795 C.ar    1  UNL1        0.0000
     18 C          63.0909   88.2892   16.4794 C.ar    1  UNL1        0.0001
     19 C          64.5815   90.9440   15.3205 C.ar    1  UNL1        0.1407
     20 N          63.8312   91.6824   16.3891 N.ar    1  UNL1       -0.2254
     21 C          64.6930   92.8153   16.8620 C.ar    1  UNL1        0.1189
     22 C          65.9760   92.7772   16.0857 C.ar    1  UNL1        0.0945
     23 N          65.9070   91.6206   15.1330 N.ar    1  UNL1       -0.3361
     24 H          66.6086   91.3526   14.4964 H       1  UNL1        0.1674
     25 C          62.1763   84.9588   11.6971 C.2     1  UNL1        0.2461
     26 O          61.3072   84.1683   10.7646 O.2     1  UNL1       -0.2701
     27 N          62.7766   84.2992   12.9032 N.am    1  UNL1       -0.2965
     28 H          63.3470   84.8181   13.5152 H       1  UNL1        0.1501
     29 CA         62.5078   82.8490   13.1766 C.3     1  UNL1        0.1239
     30 C          62.7771   81.8233   12.1159 C.ar    1  UNL1       -0.0021
     31 C          62.3782   80.3942   12.3360 C.ar    1  UNL1       -0.0026
     32 C          62.6475   79.3684   11.2752 C.ar    1  UNL1       -0.0003
     33 C          63.3158   79.7718    9.9943 C.ar    1  UNL1       -0.0000
     34 C          63.7147   81.2009    9.7741 C.ar    1  UNL1       -0.0003
     35 C          63.4453   82.2267   10.8350 C.ar    1  UNL1       -0.0026
     36 C          61.9697   82.4247   14.5109 C.3     1  UNL1        0.1611
     37 O          62.7809   82.6488   15.7525 O.3     1  UNL1       -0.3799
     38 H          63.5813   82.1019   15.7189 H       1  UNL1        0.2105
@<TRIPOS>BOND
     1     1     2    2
     2     2     3   am
     3     3     4    1
     4     4     5   ar
     5     5     6   ar
     6     6     7   ar
     7     7    25    1
     8    25    26    2
     9    25    27   am
    10    27    29    1
    11    29    36    1
    12    36    37    1
    13    29    30    1
    14    30    31   ar
    15    31    32   ar
    16    32    33   ar
    17    33    34   ar
    18    34    35   ar
    19     7     8   ar
    20     8     9   ar
    21     9    10    1
    22    10    11    2
    23    11    13    1
    24    13    14   ar
    25    14    15   ar
    26    15    16   ar
    27    16    17   ar
    28    17    18   ar
    29    11    19    1
    30    19    20   ar
    31    20    21   ar
    32    21    22   ar
    33    22    23   ar
    34    10     2    1
    35    18    13   ar
    36    23    19   ar
    37     9     4   ar
    38    35    30   ar
    39     3    12    1
    40    27    28    1
    41    37    38    1
    42    23    24    1
@<TRIPOS>MOLECULE
*****
 38 42 0 0 0
SMALL
GASTEIGER

@<TRIPOS>ATOM
      1 O          63.9263   80.6218   13.8872 O.2     1  UNL1       -0.2698
      2 C          64.0066   82.0945   14.1609 C.2     1  UNL1        0.2496
      3 N          64.4443   82.7295   15.4474 N.am    1  UNL1       -0.2804
      4 C          64.3715   84.2181   15.2778 C.ar    1  UNL1        0.0506
      5 C          64.6824   85.3509   16.2106 C.ar    1  UNL1        0.0148
      6 C          64.5107   86.7687   15.7520 C.ar    1  UNL1        0.0058
      7 C          64.0280   87.0537   14.3606 C.ar    1  UNL1        0.0534
      8 C          63.7172   85.9209   13.4279 C.ar    1  UNL1        0.0059
      9 C          63.8889   84.5031   13.8865 C.ar    1  UNL1        0.0181
     10 C          63.6634   83.1906   13.1962 C.2     1  UNL1        0.0577
     11 C          63.1795   83.0066   11.7884 C.2     1  UNL1        0.0383
     12 H          64.7292   82.2530   16.2604 H       1  UNL1        0.1552
     13 C          62.8746   84.2036   10.9375 C.ar    1  UNL1        0.0030
     14 C          63.5698   84.3846    9.6207 C.ar    1  UNL1        0.0001
     15 C          63.2649   85.5817    8.7698 C.ar    1  UNL1        0.0000
     16 C          62.2648   86.5979    9.2358 C.ar    1  UNL1        0.0000
     17 C          61.5696   86.4170   10.5525 C.ar    1  UNL1        0.0000
     18 C          61.8745   85.2199   11.4034 C.ar    1  UNL1        0.0001
     19 C          63.0006   81.6253   11.2313 C.ar    1  UNL1        0.1407
     20 N          62.3792   80.4609   11.9440 N.ar    1  UNL1       -0.2254
     21 C          62.4062   79.2820   11.0169 C.ar    1  UNL1        0.1189
     22 C          63.0442   79.7178    9.7313 C.ar    1  UNL1        0.0945
     23 N          63.4116   81.1661    9.8637 N.ar    1  UNL1       -0.3361
     24 H          63.8462   81.7183    9.1742 H       1  UNL1        0.1674
     25 C          63.8563   88.4716   13.9020 C.2     1  UNL1        0.2461
     26 O          62.9401   88.7834   12.7560 O.2     1  UNL1       -0.2701
     27 N          64.6007   89.5775   14.5895 N.am    1  UNL1       -0.2965
     28 H          65.2020   89.3729   15.3416 H       1  UNL1        0.1501
     29 CA         64.4290   90.9954   14.1309 C.3     1  UNL1        0.1239
     30 C          65.1942   91.4971   12.9423 C.ar    1  UNL1       -0.0021
     31 C          64.4948   91.6993   11.6309 C.ar    1  UNL1       -0.0026
     32 C          65.2600   92.2010   10.4423 C.ar    1  UNL1       -0.0003
     33 C          66.7247   92.5006   10.5652 C.ar    1  UNL1       -0.0000
     34 C          67.4241   92.2985   11.8767 C.ar    1  UNL1       -0.0003
     35 C          66.6588   91.7967   13.0653 C.ar    1  UNL1       -0.0026
     36 C          63.4920   91.9115   14.8609 C.3     1  UNL1        0.1611
     37 O          63.5687   92.0278   16.3544 O.3     1  UNL1       -0.3799
     38 H          63.3165   91.1826   16.7579 H       1  UNL1        0.2105
@<TRIPOS>BOND
     1     1     2    2
     2     2     3   am
     3     3     4    1
     4     4     5   ar
     5     5     6   ar
     6     6     7   ar
     7     7    25    1
     8    25    26    2
     9    25    27   am
    10    27    29    1
    11    29    36    1
    12    36    37    1
    13    29    30    1
    14    30    31   ar
    15    31    32   ar
    16    32    33   ar
    17    33    34   ar
    18    34    35   ar
    19     7     8   ar
    20     8     9   ar
    21     9    10    1
    22    10    11    2
    23    11    13    1
    24    13    14   ar
    25    14    15   ar
    26    15    16   ar
    27    16    17   ar
    28    17    18   ar
    29    11    19    1
    30    19    20   ar
    31    20    21   ar
    32    21    22   ar
    33    22    23   ar
    34    10     2    1
    35    18    13   ar
    36    23    19   ar
    37     9     4   ar
    38    35    30   ar
    39     3    12    1
    40    27    28    1
    41    37    38    1
    42    23    24    1
@<TRIPOS>MOLECULE
*****
 38 42 0 0 0
SMALL
GASTEIGER

@<TRIPOS>ATOM
      1 O          63.5560   80.0951   13.9692 O.2     1  UNL1       -0.2698
      2 C          63.6842   81.5738   14.1860 C.2     1  UNL1        0.2496
      3 N          64.0333   82.2483   15.4795 N.am    1  UNL1       -0.2804
      4 C          64.0507   83.7290   15.2403 C.ar    1  UNL1        0.0506
      5 C          64.3309   84.8893   16.1487 C.ar    1  UNL1        0.0148
      6 C          64.2727   86.2901   15.6157 C.ar    1  UNL1        0.0058
      7 C          63.9343   86.5308   14.1743 C.ar    1  UNL1        0.0534
      8 C          63.6541   85.3705   13.2659 C.ar    1  UNL1        0.0059
      9 C          63.7123   83.9696   13.7989 C.ar    1  UNL1        0.0181
     10 C          63.4858   82.6376   13.1473 C.2     1  UNL1        0.0577
     11 C          63.1243   82.4096   11.7095 C.2     1  UNL1        0.0383
     12 H          64.2186   81.7982   16.3353 H       1  UNL1        0.1552
     13 C          62.9586   83.5777   10.7834 C.ar    1  UNL1        0.0030
     14 C          61.9379   84.6349   11.0847 C.ar    1  UNL1        0.0001
     15 C          61.7721   85.8031   10.1586 C.ar    1  UNL1        0.0000
     16 C          62.6271   85.9143    8.9311 C.ar    1  UNL1        0.0000
     17 C          63.6478   84.8572    8.6298 C.ar    1  UNL1        0.0000
     18 C          63.8135   83.6890    9.5559 C.ar    1  UNL1        0.0001
     19 C          62.9286   81.0131   11.1978 C.ar    1  UNL1        0.1407
     20 N          62.4405   79.8415   11.9972 N.ar    1  UNL1       -0.2254
     21 C          62.3968   78.6475   11.0903 C.ar    1  UNL1        0.1189
     22 C          62.8579   79.0812    9.7304 C.ar    1  UNL1        0.0945
     23 N          63.1865   80.5433    9.7968 N.ar    1  UNL1       -0.3361
     24 H          63.5140   81.0972    9.0517 H       1  UNL1        0.1674
     25 C          63.8761   87.9317   13.6414 C.2     1  UNL1        0.2461
     26 O          63.1030   88.2267   12.3902 O.2     1  UNL1       -0.2701
     27 N          64.5909   89.0377   14.3595 N.am    1  UNL1       -0.2965
     28 H          65.0983   88.8441   15.1807 H       1  UNL1        0.1501
     29 CA         64.5328   90.4386   13.8266 C.3     1  UNL1        0.1239
     30 C          65.5778   91.4374   14.2269 C.ar    1  UNL1       -0.0021
     31 C          65.6230   91.9521   15.6351 C.ar    1  UNL1       -0.0026
     32 C          66.6681   92.9509   16.0354 C.ar    1  UNL1       -0.0003
     33 C          67.6681   93.4349   15.0275 C.ar    1  UNL1       -0.0000
     34 C          67.6229   92.9201   13.6193 C.ar    1  UNL1       -0.0003
     35 C          66.5778   91.9213   13.2190 C.ar    1  UNL1       -0.0026
     36 C          63.4295   90.8408   12.8933 C.3     1  UNL1        0.1611
     37 O          63.1562   92.2932   12.6367 O.3     1  UNL1       -0.3799
     38 H          62.8394   92.7116   13.4525 H       1  UNL1        0.2105
@<TRIPOS>BOND
     1     1     2    2
     2     2     3   am
     3     3     4    1
     4     4     5   ar
     5     5     6   ar
     6     6     7   ar
     7     7    25    1
     8    25    26    2
     9    25    27   am
    10    27    29    1
    11    29    36    1
    12    36    37    1
    13    29    30    1
    14    30    31   ar
    15    31    32   ar
    16    32    33   ar
    17    33    34   ar
    18    34    35   ar
    19     7     8   ar
    20     8     9   ar
    21     9    10    1
    22    10    11    2
    23    11    13    1
    24    13    14   ar
    25    14    15   ar
    26    15    16   ar
    27    16    17   ar
    28    17    18   ar
    29    11    19    1
    30    19    20   ar
    31    20    21   ar
    32    21    22   ar
    33    22    23   ar
    34    10     2    1
    35    18    13   ar
    36    23    19   ar
    37     9     4   ar
    38    35    30   ar
    39     3    12    1
    40    27    28    1
    41    37    38    1
    42    23    24    1
