@<TRIPOS>MOLECULE
*****
 29 31 0 0 0
SMALL
GASTEIGER

@<TRIPOS>ATOM
      1 C          61.0157   88.6682    9.3301 C.3     1  UNL1        0.1566
      2 C          60.0145   89.3709    8.4618 C.3     1  UNL1        0.0391
      3 C          59.3389   88.3405    7.6062 C.3     1  UNL1        0.0879
      4 C          59.9226   87.0011    7.9458 C.2     1  UNL1        0.2297
      5 O          59.5375   85.6894    7.3283 O.2     1  UNL1       -0.2745
      6 N          60.9588   87.2036    9.0112 N.am    1  UNL1       -0.2517
      7 C          61.7921   86.1300    9.6462 C.ar    1  UNL1        0.0542
      8 C          61.6503   85.8384   11.1108 C.ar    1  UNL1        0.0149
      9 C          62.4835   84.7648   11.7457 C.ar    1  UNL1        0.0051
     10 C          63.4584   83.9829   10.9162 C.ar    1  UNL1        0.0715
     11 C          63.6002   84.2745    9.4517 C.ar    1  UNL1        0.0051
     12 C          62.7670   85.3481    8.8167 C.ar    1  UNL1        0.0149
     13 C          64.2917   82.9093   11.5512 C.3     1  UNL1        0.4186
     14 F          65.1248   81.8358   12.1863 F       1  UNL1       -0.1659
     15 F          64.3839   82.2007   10.2324 F       1  UNL1       -0.1659
     16 F          64.1995   83.6179   12.8701 F       1  UNL1       -0.1659
     17 N          61.5897   89.2276   11.8014 N.am    1  UNL1       -0.2519
     18 C          61.9156   89.3164   10.3400 C.2     1  UNL1        0.2467
     19 O          63.1416   90.0534    9.8885 O.2     1  UNL1       -0.2729
     20 H          60.7851   88.7439   12.0978 H       1  UNL1        0.1578
     21 C          64.2873   91.1643   13.8109 C.ar    1  UNL1        0.1014
     22 C          63.6864   90.7277   12.5077 C.ar    1  UNL1        0.0741
     23 C          62.4897   89.8758   12.8113 C.ar    1  UNL1        0.2322
     24 O          62.3510   89.7859   14.3022 O.2     1  UNL1       -0.3384
     25 N          63.4619   90.5822   14.9200 N.ar    1  UNL1       -0.0798
     26 C          65.5405   92.2572   12.4939 C.3     1  UNL1        0.0060
     27 C          65.5005   92.0308   13.9761 C.3     1  UNL1        0.0388
     28 C          65.4605   91.8043   15.4583 C.3     1  UNL1        0.0060
     29 C          66.7137   92.8973   14.1412 C.3     1  UNL1        0.0060
@<TRIPOS>BOND
     1    26    27    1
     2    27    28    1
     3    27    29    1
     4    27    21    1
     5    21    22   ar
     6    22    23   ar
     7    23    17    1
     8    17    18   am
     9    18    19    2
    10     1    18    1
    11     1     2    1
    12     2     3    1
    13     3     4    1
    14     4     5    2
    15     4     6   am
    16     6     7    1
    17     7     8   ar
    18     8     9   ar
    19     9    10   ar
    20    10    13    1
    21    13    14    1
    22    13    15    1
    23    13    16    1
    24    10    11   ar
    25    11    12   ar
    26    23    24   ar
    27    24    25   ar
    28    25    21   ar
    29     6     1    1
    30    12     7   ar
    31    17    20    1
@<TRIPOS>MOLECULE
*****
 29 31 0 0 0
SMALL
GASTEIGER

@<TRIPOS>ATOM
      1 C          61.0610   88.8644    9.2274 C.3     1  UNL1        0.1566
      2 C          60.0381   89.5944    8.4083 C.3     1  UNL1        0.0391
      3 C          59.2420   88.5765    7.6466 C.3     1  UNL1        0.0879
      4 C          59.7728   87.2175    7.9950 C.2     1  UNL1        0.2297
      5 O          59.2681   85.9101    7.4602 O.2     1  UNL1       -0.2745
      6 N          60.8970   87.3955    8.9720 N.am    1  UNL1       -0.2517
      7 C          61.7139   86.2972    9.5858 C.ar    1  UNL1        0.0542
      8 C          61.5381   85.9520   11.0349 C.ar    1  UNL1        0.0149
      9 C          62.3550   84.8539   11.6486 C.ar    1  UNL1        0.0051
     10 C          63.3476   84.1009   10.8133 C.ar    1  UNL1        0.0715
     11 C          63.5233   84.4461    9.3642 C.ar    1  UNL1        0.0051
     12 C          62.7065   85.5443    8.7504 C.ar    1  UNL1        0.0149
     13 C          64.1645   83.0027   11.4271 C.3     1  UNL1        0.4186
     14 F          64.9813   81.9045   12.0409 F       1  UNL1       -0.1659
     15 F          63.7217   83.4367   12.7930 F       1  UNL1       -0.1659
     16 F          64.6072   82.5687   10.0613 F       1  UNL1       -0.1659
     17 N          62.6739   90.8213    9.7924 N.am    1  UNL1       -0.2519
     18 C          62.0705   89.4931   10.1415 C.2     1  UNL1        0.2467
     19 O          62.4767   88.7937   11.4047 O.2     1  UNL1       -0.2729
     20 H          62.4073   91.2804    8.9633 H       1  UNL1        0.1578
     21 C          65.0203   91.9603   12.6668 C.ar    1  UNL1        0.1014
     22 C          63.9262   91.0799   12.1397 C.ar    1  UNL1        0.0741
     23 C          63.6834   91.4500   10.7065 C.ar    1  UNL1        0.2322
     24 O          64.6275   92.5591   10.3478 O.2     1  UNL1       -0.3384
     25 N          65.4537   92.8745   11.5594 N.ar    1  UNL1       -0.0798
     26 C          64.8311   90.6633   14.3347 C.3     1  UNL1        0.0060
     27 C          65.5823   91.9316   14.0573 C.3     1  UNL1        0.0388
     28 C          66.3336   93.1999   13.7798 C.3     1  UNL1        0.0060
     29 C          66.1443   91.9028   15.4477 C.3     1  UNL1        0.0060
@<TRIPOS>BOND
     1    26    27    1
     2    27    28    1
     3    27    29    1
     4    27    21    1
     5    21    22   ar
     6    22    23   ar
     7    23    17    1
     8    17    18   am
     9    18    19    2
    10     1    18    1
    11     1     2    1
    12     2     3    1
    13     3     4    1
    14     4     5    2
    15     4     6   am
    16     6     7    1
    17     7     8   ar
    18     8     9   ar
    19     9    10   ar
    20    10    13    1
    21    13    14    1
    22    13    15    1
    23    13    16    1
    24    10    11   ar
    25    11    12   ar
    26    23    24   ar
    27    24    25   ar
    28    25    21   ar
    29     6     1    1
    30    12     7   ar
    31    17    20    1
@<TRIPOS>MOLECULE
*****
 29 31 0 0 0
SMALL
GASTEIGER

@<TRIPOS>ATOM
      1 C          64.5578   91.6426   12.3883 C.3     1  UNL1        0.1566
      2 C          65.3297   92.8369   11.9110 C.3     1  UNL1        0.0391
      3 C          66.2302   93.2822   13.0250 C.3     1  UNL1        0.0879
      4 C          66.0148   92.3631   14.1907 C.2     1  UNL1        0.2297
      5 O          66.7108   92.4433   15.5170 O.2     1  UNL1       -0.2745
      6 N          64.9812   91.3498   13.7972 N.am    1  UNL1       -0.2517
      7 C          64.4621   90.2386   14.6610 C.ar    1  UNL1        0.0542
      8 C          63.6736   90.5554   15.8970 C.ar    1  UNL1        0.0149
      9 C          63.1545   89.4442   16.7607 C.ar    1  UNL1        0.0051
     10 C          63.4240   88.0164   16.3883 C.ar    1  UNL1        0.0715
     11 C          64.2125   87.6997   15.1523 C.ar    1  UNL1        0.0051
     12 C          64.7316   88.8108   14.2886 C.ar    1  UNL1        0.0149
     13 C          62.9049   86.9053   17.2521 C.3     1  UNL1        0.4186
     14 F          62.3859   85.7942   18.1158 F       1  UNL1       -0.1659
     15 F          62.9567   85.9702   16.0804 F       1  UNL1       -0.1659
     16 F          62.8531   87.8403   18.4238 F       1  UNL1       -0.1659
     17 N          62.9674   89.6028   12.1439 N.am    1  UNL1       -0.2519
     18 C          63.5410   90.8757   11.5958 C.2     1  UNL1        0.2467
     19 O          63.0979   91.3819   10.2551 O.2     1  UNL1       -0.2729
     20 H          63.2583   89.2706   13.0238 H       1  UNL1        0.1578
     21 C          60.9269   87.4134    9.6724 C.ar    1  UNL1        0.1014
     22 C          62.2283   87.9929   10.1422 C.ar    1  UNL1        0.0741
     23 C          61.9506   88.8359   11.3513 C.ar    1  UNL1        0.2322
     24 O          60.4777   88.7775   11.6289 O.2     1  UNL1       -0.3384
     25 N          59.8450   87.8983   10.5912 N.ar    1  UNL1       -0.0798
     26 C          62.1410   85.9987    8.6602 C.3     1  UNL1        0.0060
     27 C          60.7403   86.5079    8.4911 C.3     1  UNL1        0.0388
     28 C          59.3396   87.0172    8.3220 C.3     1  UNL1        0.0060
     29 C          60.5537   85.6025    7.3098 C.3     1  UNL1        0.0060
@<TRIPOS>BOND
     1    26    27    1
     2    27    28    1
     3    27    29    1
     4    27    21    1
     5    21    22   ar
     6    22    23   ar
     7    23    17    1
     8    17    18   am
     9    18    19    2
    10     1    18    1
    11     1     2    1
    12     2     3    1
    13     3     4    1
    14     4     5    2
    15     4     6   am
    16     6     7    1
    17     7     8   ar
    18     8     9   ar
    19     9    10   ar
    20    10    13    1
    21    13    14    1
    22    13    15    1
    23    13    16    1
    24    10    11   ar
    25    11    12   ar
    26    23    24   ar
    27    24    25   ar
    28    25    21   ar
    29     6     1    1
    30    12     7   ar
    31    17    20    1
@<TRIPOS>MOLECULE
*****
 29 31 0 0 0
SMALL
GASTEIGER

@<TRIPOS>ATOM
      1 C          65.2413   91.4076   13.2826 C.3     1  UNL1        0.1566
      2 C          65.3972   90.7552   14.6242 C.3     1  UNL1        0.0391
      3 C          66.6131   91.3359   15.2835 C.3     1  UNL1        0.0879
      4 C          67.2085   92.3472   14.3493 C.2     1  UNL1        0.2297
      5 O          68.4362   93.1697   14.6065 O.2     1  UNL1       -0.2745
      6 N          66.3607   92.3915   13.1127 N.am    1  UNL1       -0.2517
      7 C          66.5918   93.2662   11.9161 C.ar    1  UNL1        0.0542
      8 C          67.2816   92.7128   10.7046 C.ar    1  UNL1        0.0149
      9 C          67.5126   93.5875    9.5081 C.ar    1  UNL1        0.0051
     10 C          67.0537   95.0155    9.5232 C.ar    1  UNL1        0.0715
     11 C          66.3639   95.5689   10.7347 C.ar    1  UNL1        0.0051
     12 C          66.1329   94.6942   11.9312 C.ar    1  UNL1        0.0149
     13 C          67.2848   95.8902    8.3266 C.3     1  UNL1        0.4186
     14 F          67.5158   96.7647    7.1301 F       1  UNL1       -0.1659
     15 F          68.0519   96.8557    9.1805 F       1  UNL1       -0.1659
     16 F          66.5176   94.9246    7.4727 F       1  UNL1       -0.1659
     17 N          63.2390   89.9561   12.4866 N.am    1  UNL1       -0.2519
     18 C          64.1564   91.1256   12.2859 C.2     1  UNL1        0.2467
     19 O          63.9889   92.0133   11.0884 O.2     1  UNL1       -0.2729
     20 H          63.3489   89.3735   13.2726 H       1  UNL1        0.1578
     21 C          60.7983   88.5765    9.8024 C.ar    1  UNL1        0.1014
     22 C          62.0241   88.4346   10.6553 C.ar    1  UNL1        0.0741
     23 C          62.1540   89.6741   11.4899 C.ar    1  UNL1        0.2322
     24 O          61.0086   90.5821   11.1529 O.2     1  UNL1       -0.3384
     25 N          60.1708   89.9038   10.1099 N.ar    1  UNL1       -0.0798
     26 C          60.9020   86.4651    9.6262 C.3     1  UNL1        0.0060
     27 C          60.2894   87.5682    8.8152 C.3     1  UNL1        0.0388
     28 C          59.6768   88.6714    8.0042 C.3     1  UNL1        0.0060
     29 C          59.7805   86.5599    7.8281 C.3     1  UNL1        0.0060
@<TRIPOS>BOND
     1    26    27    1
     2    27    28    1
     3    27    29    1
     4    27    21    1
     5    21    22   ar
     6    22    23   ar
     7    23    17    1
     8    17    18   am
     9    18    19    2
    10     1    18    1
    11     1     2    1
    12     2     3    1
    13     3     4    1
    14     4     5    2
    15     4     6   am
    16     6     7    1
    17     7     8   ar
    18     8     9   ar
    19     9    10   ar
    20    10    13    1
    21    13    14    1
    22    13    15    1
    23    13    16    1
    24    10    11   ar
    25    11    12   ar
    26    23    24   ar
    27    24    25   ar
    28    25    21   ar
    29     6     1    1
    30    12     7   ar
    31    17    20    1
@<TRIPOS>MOLECULE
*****
 29 31 0 0 0
SMALL
GASTEIGER

@<TRIPOS>ATOM
      1 C          63.5820   85.6960   13.3608 C.3     1  UNL1        0.1566
      2 C          64.1652   84.6402   14.2524 C.3     1  UNL1        0.0391
      3 C          63.7782   83.3007   13.6991 C.3     1  UNL1        0.0879
      4 C          62.9558   83.5287   12.4656 C.2     1  UNL1        0.2297
      5 O          62.3593   82.4634   11.5942 O.2     1  UNL1       -0.2745
      6 N          62.8345   85.0091   12.2565 N.am    1  UNL1       -0.2517
      7 C          62.0955   85.6841   11.1392 C.ar    1  UNL1        0.0542
      8 C          62.4867   85.4219    9.7151 C.ar    1  UNL1        0.0149
      9 C          61.7477   86.0969    8.5979 C.ar    1  UNL1        0.0051
     10 C          60.6175   87.0342    8.9048 C.ar    1  UNL1        0.0715
     11 C          60.2263   87.2964   10.3289 C.ar    1  UNL1        0.0051
     12 C          60.9653   86.6214   11.4461 C.ar    1  UNL1        0.0149
     13 C          59.8785   87.7092    7.7875 C.3     1  UNL1        0.4186
     14 F          59.1395   88.3841    6.6702 F       1  UNL1       -0.1659
     15 F          60.4150   89.0367    8.2346 F       1  UNL1       -0.1659
     16 F          59.3420   86.3817    7.3404 F       1  UNL1       -0.1659
     17 N          64.1209   87.7370   14.8753 N.am    1  UNL1       -0.2519
     18 C          63.7217   87.1785   13.5417 C.2     1  UNL1        0.2467
     19 O          63.4622   88.1025   12.3889 O.2     1  UNL1       -0.2729
     20 H          64.2913   87.1306   15.6319 H       1  UNL1        0.1578
     21 C          65.1311   91.4835   14.9704 C.ar    1  UNL1        0.1014
     22 C          65.4033   90.0628   14.5732 C.ar    1  UNL1        0.0741
     23 C          64.2607   89.2195   15.0562 C.ar    1  UNL1        0.2322
     24 O          63.2823   90.1189   15.7518 O.2     1  UNL1       -0.3384
     25 N          63.8203   91.5181   15.6988 N.ar    1  UNL1       -0.0798
     26 C          65.6673   92.5745   13.2321 C.3     1  UNL1        0.0060
     27 C          66.0146   92.6624   14.6886 C.3     1  UNL1        0.0388
     28 C          66.3619   92.7504   16.1452 C.3     1  UNL1        0.0060
     29 C          66.8981   93.8414   14.4068 C.3     1  UNL1        0.0060
@<TRIPOS>BOND
     1    26    27    1
     2    27    28    1
     3    27    29    1
     4    27    21    1
     5    21    22   ar
     6    22    23   ar
     7    23    17    1
     8    17    18   am
     9    18    19    2
    10     1    18    1
    11     1     2    1
    12     2     3    1
    13     3     4    1
    14     4     5    2
    15     4     6   am
    16     6     7    1
    17     7     8   ar
    18     8     9   ar
    19     9    10   ar
    20    10    13    1
    21    13    14    1
    22    13    15    1
    23    13    16    1
    24    10    11   ar
    25    11    12   ar
    26    23    24   ar
    27    24    25   ar
    28    25    21   ar
    29     6     1    1
    30    12     7   ar
    31    17    20    1
@<TRIPOS>MOLECULE
*****
 29 31 0 0 0
SMALL
GASTEIGER

@<TRIPOS>ATOM
      1 C          63.6816   84.7558   13.6022 C.3     1  UNL1        0.1566
      2 C          64.2261   83.5439   14.2984 C.3     1  UNL1        0.0391
      3 C          63.9633   82.3516   13.4269 C.3     1  UNL1        0.0879
      4 C          63.2564   82.8267   12.1921 C.2     1  UNL1        0.2297
      5 O          62.8032   81.9668   11.0497 O.2     1  UNL1       -0.2745
      6 N          63.0823   84.3126   12.3005 N.am    1  UNL1       -0.2517
      7 C          62.4244   85.1996   11.2853 C.ar    1  UNL1        0.0542
      8 C          61.3483   86.1548   11.7091 C.ar    1  UNL1        0.0149
      9 C          60.6904   87.0417   10.6940 C.ar    1  UNL1        0.0051
     10 C          61.1087   86.9735    9.2551 C.ar    1  UNL1        0.0715
     11 C          62.1847   86.0183    8.8313 C.ar    1  UNL1        0.0051
     12 C          62.8426   85.1313    9.8464 C.ar    1  UNL1        0.0149
     13 C          60.4508   87.8605    8.2400 C.3     1  UNL1        0.4186
     14 F          59.7929   88.7474    7.2248 F       1  UNL1       -0.1659
     15 F          60.9452   89.0701    8.9763 F       1  UNL1       -0.1659
     16 F          59.9563   86.6509    7.5036 F       1  UNL1       -0.1659
     17 N          63.7996   87.3125   13.1553 N.am    1  UNL1       -0.2519
     18 C          63.7282   86.1638   14.1173 C.2     1  UNL1        0.2467
     19 O          63.7033   86.4232   15.5945 O.2     1  UNL1       -0.2729
     20 H          63.8159   87.1422   12.1858 H       1  UNL1        0.1578
     21 C          64.6200   90.7764   14.7022 C.ar    1  UNL1        0.1014
     22 C          65.0097   89.3689   14.3601 C.ar    1  UNL1        0.0741
     23 C          63.8462   88.7204   13.6705 C.ar    1  UNL1        0.2322
     24 O          62.7374   89.7272   13.5864 O.2     1  UNL1       -0.3384
     25 N          63.2157   90.9979   14.2240 N.ar    1  UNL1       -0.0798
     26 C          66.5328   91.6196   14.3415 C.3     1  UNL1        0.0060
     27 C          65.4832   91.7854   15.4001 C.3     1  UNL1        0.0388
     28 C          64.4336   91.9512   16.4587 C.3     1  UNL1        0.0060
     29 C          66.3464   92.7943   16.0979 C.3     1  UNL1        0.0060
@<TRIPOS>BOND
     1    26    27    1
     2    27    28    1
     3    27    29    1
     4    27    21    1
     5    21    22   ar
     6    22    23   ar
     7    23    17    1
     8    17    18   am
     9    18    19    2
    10     1    18    1
    11     1     2    1
    12     2     3    1
    13     3     4    1
    14     4     5    2
    15     4     6   am
    16     6     7    1
    17     7     8   ar
    18     8     9   ar
    19     9    10   ar
    20    10    13    1
    21    13    14    1
    22    13    15    1
    23    13    16    1
    24    10    11   ar
    25    11    12   ar
    26    23    24   ar
    27    24    25   ar
    28    25    21   ar
    29     6     1    1
    30    12     7   ar
    31    17    20    1
