@<TRIPOS>MOLECULE
*****
 33 37 0 0 0
SMALL
GASTEIGER

@<TRIPOS>ATOM
      1 C          62.3069   90.2637   10.6597 C.ar    1  UNL1        0.0846
      2 C          60.8446   90.5919   10.5971 C.ar    1  UNL1        0.0370
      3 C          60.1129   89.3635   10.1436 C.ar    1  UNL1        0.0967
      4 N          61.1230   88.2762    9.9258 N.ar    1  UNL1       -0.2452
      5 N          62.4790   88.8326   10.2448 N.ar    1  UNL1       -0.1730
      6 C          63.4045   91.2020   11.0658 C.3     1  UNL1        0.0757
      7 N          62.9882   89.5914   15.9885 N.pl3   1  UNL1       -0.3441
      8 C          63.6972   90.3977   14.9410 C.ar    1  UNL1        0.1035
      9 C          63.1964   90.3967   13.5272 C.ar    1  UNL1        0.0297
     10 C          63.9054   91.2030   12.4797 C.ar    1  UNL1        0.0090
     11 C          65.1153   92.0104   12.8462 C.ar    1  UNL1        0.1366
     12 N          66.0141   92.8962   12.0353 N.ar    1  UNL1       -0.1258
     13 N          67.0705   93.4446   12.9482 N.ar    1  UNL1       -0.0406
     14 N          66.8246   92.8978   14.3231 N.ar    1  UNL1       -0.1095
     15 C          65.6161   92.0114   14.2601 C.ar    1  UNL1        0.1838
     16 N          64.9071   91.2051   15.3075 N.ar    1  UNL1       -0.3249
     17 H          62.1941   89.0614   15.7480 H       1  UNL1        0.1437
     18 H          63.3170   89.5921   16.9165 H       1  UNL1        0.1437
     19 H          65.2358   91.2058   16.2355 H       1  UNL1        0.1686
     20 C          60.8288   86.8779    9.4693 C.3     1  UNL1        0.1538
     21 C          61.8132   85.7785    9.7378 C.ar    1  UNL1        0.0018
     22 C          62.7149   85.2947    8.6409 C.ar    1  UNL1       -0.0024
     23 C          63.6994   84.1953    8.9094 C.ar    1  UNL1       -0.0006
     24 C          63.7822   83.5797   10.2747 C.ar    1  UNL1       -0.0040
     25 C          62.8806   84.0634   11.3715 C.ar    1  UNL1       -0.0180
     26 C          61.8962   85.1628   11.1030 C.ar    1  UNL1       -0.0063
     27 C          62.9635   83.4477   12.7369 C.3     1  UNL1        0.0526
     28 C          63.1590   84.3191   13.9419 C.ar    1  UNL1       -0.0178
     29 C          64.2619   85.3355   13.9616 C.ar    1  UNL1       -0.0039
     30 C          64.4575   86.2069   15.1667 C.ar    1  UNL1       -0.0003
     31 C          63.5501   86.0619   16.3523 C.ar    1  UNL1       -0.0000
     32 C          62.4471   85.0455   16.3328 C.ar    1  UNL1       -0.0003
     33 C          62.2516   84.1741   15.1276 C.ar    1  UNL1       -0.0039
@<TRIPOS>BOND
     1     7     8    1
     2     8     9   ar
     3     9    10   ar
     4    10     6    1
     5     6     1    1
     6     1     2   ar
     7     2     3   ar
     8     3     4   ar
     9     4    20    1
    10    20    21    1
    11    21    22   ar
    12    22    23   ar
    13    23    24   ar
    14    24    25   ar
    15    25    27    1
    16    27    28    1
    17    28    29   ar
    18    29    30   ar
    19    30    31   ar
    20    31    32   ar
    21    32    33   ar
    22    25    26   ar
    23     4     5   ar
    24    10    11   ar
    25    11    12   ar
    26    12    13   ar
    27    13    14   ar
    28    14    15   ar
    29    15    16   ar
    30    16     8   ar
    31     5     1   ar
    32    15    11    1
    33    26    21   ar
    34    33    28   ar
    35     7    17    1
    36     7    18    1
    37    16    19    1
@<TRIPOS>MOLECULE
*****
 33 37 0 0 0
SMALL
GASTEIGER

@<TRIPOS>ATOM
      1 C          62.1521   86.1403   11.0938 C.ar    1  UNL1        0.0846
      2 C          60.8585   86.4986   10.4243 C.ar    1  UNL1        0.0370
      3 C          60.6628   87.9798   10.5567 C.ar    1  UNL1        0.0967
      4 N          61.8354   88.5370   11.3081 N.ar    1  UNL1       -0.2452
      5 N          62.7558   87.4001   11.6400 N.ar    1  UNL1       -0.1730
      6 C          62.7389   84.7639   11.1987 C.3     1  UNL1        0.0757
      7 N          64.3497   85.4405   16.0924 N.pl3   1  UNL1       -0.3441
      8 C          63.8874   84.5337   14.9906 C.ar    1  UNL1        0.1035
      9 C          63.5443   85.1021   13.6456 C.ar    1  UNL1        0.0297
     10 C          63.0820   84.1953   12.5437 C.ar    1  UNL1        0.0090
     11 C          62.9627   82.7200   12.7870 C.ar    1  UNL1        0.1366
     12 N          62.5373   81.5877   11.9000 N.ar    1  UNL1       -0.1258
     13 N          62.6174   80.3194   12.6968 N.ar    1  UNL1       -0.0406
     14 N          63.0924   80.6678   14.0763 N.ar    1  UNL1       -0.1095
     15 C          63.3057   82.1515   14.1321 C.ar    1  UNL1        0.1838
     16 N          63.7681   83.0584   15.2339 N.ar    1  UNL1       -0.3249
     17 H          64.4280   86.4088   15.9328 H       1  UNL1        0.1437
     18 H          64.5749   85.0673   16.9752 H       1  UNL1        0.1437
     19 H          63.9932   82.6853   16.1167 H       1  UNL1        0.1686
     20 C          62.0499   89.9782   11.6649 C.3     1  UNL1        0.1538
     21 C          63.2433   90.3793   12.4802 C.ar    1  UNL1        0.0018
     22 C          63.6576   89.5517   13.6607 C.ar    1  UNL1       -0.0024
     23 C          64.8511   89.9529   14.4761 C.ar    1  UNL1       -0.0006
     24 C          65.6301   91.1816   14.1110 C.ar    1  UNL1       -0.0040
     25 C          65.2158   92.0091   12.9305 C.ar    1  UNL1       -0.0180
     26 C          64.0224   91.6080   12.1152 C.ar    1  UNL1       -0.0063
     27 C          65.9949   93.2379   12.5655 C.3     1  UNL1        0.0526
     28 C          66.7438   93.2929   11.2670 C.ar    1  UNL1       -0.0178
     29 C          67.5781   92.1245   10.8323 C.ar    1  UNL1       -0.0039
     30 C          68.3270   92.1795    9.5338 C.ar    1  UNL1       -0.0003
     31 C          68.2416   93.4028    8.6700 C.ar    1  UNL1       -0.0000
     32 C          67.4073   94.5712    9.1046 C.ar    1  UNL1       -0.0003
     33 C          66.6584   94.5162   10.4032 C.ar    1  UNL1       -0.0039
@<TRIPOS>BOND
     1     7     8    1
     2     8     9   ar
     3     9    10   ar
     4    10     6    1
     5     6     1    1
     6     1     2   ar
     7     2     3   ar
     8     3     4   ar
     9     4    20    1
    10    20    21    1
    11    21    22   ar
    12    22    23   ar
    13    23    24   ar
    14    24    25   ar
    15    25    27    1
    16    27    28    1
    17    28    29   ar
    18    29    30   ar
    19    30    31   ar
    20    31    32   ar
    21    32    33   ar
    22    25    26   ar
    23     4     5   ar
    24    10    11   ar
    25    11    12   ar
    26    12    13   ar
    27    13    14   ar
    28    14    15   ar
    29    15    16   ar
    30    16     8   ar
    31     5     1   ar
    32    15    11    1
    33    26    21   ar
    34    33    28   ar
    35     7    17    1
    36     7    18    1
    37    16    19    1
@<TRIPOS>MOLECULE
*****
 33 37 0 0 0
SMALL
GASTEIGER

@<TRIPOS>ATOM
      1 C          62.9165   89.9725   12.5541 C.ar    1  UNL1        0.0846
      2 C          61.9464   90.8359   11.8036 C.ar    1  UNL1        0.0370
      3 C          61.0783   89.9410   10.9697 C.ar    1  UNL1        0.0967
      4 N          61.5118   88.5244   11.2048 N.ar    1  UNL1       -0.2452
      5 N          62.6479   88.5439   12.1841 N.ar    1  UNL1       -0.1730
      6 C          63.9702   90.4532   13.5073 C.3     1  UNL1        0.0757
      7 N          65.8544   93.6546    9.8740 N.pl3   1  UNL1       -0.3441
      8 C          65.8251   93.1767   11.2955 C.ar    1  UNL1        0.1035
      9 C          64.9124   92.0540   11.6906 C.ar    1  UNL1        0.0297
     10 C          64.8830   91.5760   13.1122 C.ar    1  UNL1        0.0090
     11 C          65.7665   92.2210   14.1386 C.ar    1  UNL1        0.1366
     12 N          65.9534   91.9657   15.6049 N.ar    1  UNL1       -0.1258
     13 N          66.9817   92.9308   16.1159 N.ar    1  UNL1       -0.0406
     14 N          67.4303   93.7825   14.9655 N.ar    1  UNL1       -0.1095
     15 C          66.6792   93.3438   13.7435 C.ar    1  UNL1        0.1838
     16 N          66.7085   93.8217   12.3219 N.ar    1  UNL1       -0.3249
     17 H          65.2746   93.2314    9.2003 H       1  UNL1        0.1437
     18 H          66.4535   94.3916    9.6147 H       1  UNL1        0.1437
     19 H          67.3076   94.5586   12.0626 H       1  UNL1        0.1686
     20 C          60.9142   87.3027   10.5719 C.3     1  UNL1        0.1538
     21 C          61.8068   86.2298   10.0225 C.ar    1  UNL1        0.0018
     22 C          61.9977   86.0990    8.5404 C.ar    1  UNL1       -0.0024
     23 C          62.8904   85.0260    7.9910 C.ar    1  UNL1       -0.0006
     24 C          63.5922   84.0838    8.9237 C.ar    1  UNL1       -0.0040
     25 C          63.4013   84.2146   10.4057 C.ar    1  UNL1       -0.0180
     26 C          62.5086   85.2876   10.9551 C.ar    1  UNL1       -0.0063
     27 C          64.1031   83.2724   11.3383 C.3     1  UNL1        0.0526
     28 C          63.3089   82.4353   12.2966 C.ar    1  UNL1       -0.0178
     29 C          63.0503   80.9893   11.9931 C.ar    1  UNL1       -0.0039
     30 C          62.2561   80.1521   12.9514 C.ar    1  UNL1       -0.0003
     31 C          61.7203   80.7610   14.2132 C.ar    1  UNL1       -0.0000
     32 C          61.9788   82.2071   14.5168 C.ar    1  UNL1       -0.0003
     33 C          62.7731   83.0442   13.5585 C.ar    1  UNL1       -0.0039
@<TRIPOS>BOND
     1     7     8    1
     2     8     9   ar
     3     9    10   ar
     4    10     6    1
     5     6     1    1
     6     1     2   ar
     7     2     3   ar
     8     3     4   ar
     9     4    20    1
    10    20    21    1
    11    21    22   ar
    12    22    23   ar
    13    23    24   ar
    14    24    25   ar
    15    25    27    1
    16    27    28    1
    17    28    29   ar
    18    29    30   ar
    19    30    31   ar
    20    31    32   ar
    21    32    33   ar
    22    25    26   ar
    23     4     5   ar
    24    10    11   ar
    25    11    12   ar
    26    12    13   ar
    27    13    14   ar
    28    14    15   ar
    29    15    16   ar
    30    16     8   ar
    31     5     1   ar
    32    15    11    1
    33    26    21   ar
    34    33    28   ar
    35     7    17    1
    36     7    18    1
    37    16    19    1
@<TRIPOS>MOLECULE
*****
 33 37 0 0 0
SMALL
GASTEIGER

@<TRIPOS>ATOM
      1 C          62.8839   89.9095   11.7025 C.ar    1  UNL1        0.0846
      2 C          62.3259   90.1917   10.3390 C.ar    1  UNL1        0.0370
      3 C          61.8971   88.8875    9.7347 C.ar    1  UNL1        0.0967
      4 N          62.1901   87.7993   10.7246 N.ar    1  UNL1       -0.2452
      5 N          62.8000   88.4309   11.9408 N.ar    1  UNL1       -0.1730
      6 C          63.4299   90.9271   12.6596 C.3     1  UNL1        0.0757
      7 N          66.0972   93.9303    9.3630 N.pl3   1  UNL1       -0.3441
      8 C          66.0079   93.1916   10.6655 C.ar    1  UNL1        0.1035
      9 C          64.7637   92.4287   11.0113 C.ar    1  UNL1        0.0297
     10 C          64.6743   91.6901   12.3139 C.ar    1  UNL1        0.0090
     11 C          65.8294   91.7145   13.2705 C.ar    1  UNL1        0.1366
     12 N          66.0300   91.0865   14.6179 N.ar    1  UNL1       -0.1258
     13 N          67.3984   91.4614   15.1048 N.ar    1  UNL1       -0.0406
     14 N          68.0434   92.3211   14.0584 N.ar    1  UNL1       -0.1095
     15 C          67.0737   92.4775   12.9247 C.ar    1  UNL1        0.1838
     16 N          67.1629   93.2160   11.6222 N.ar    1  UNL1       -0.3249
     17 H          65.3392   93.9143    8.7350 H       1  UNL1        0.1437
     18 H          66.9139   94.4310    9.1361 H       1  UNL1        0.1437
     19 H          67.9796   93.7168   11.3953 H       1  UNL1        0.1686
     20 C          61.9205   86.3362   10.5321 C.3     1  UNL1        0.1538
     21 C          62.7811   85.3183   11.2198 C.ar    1  UNL1        0.0018
     22 C          63.3055   84.1395   10.4546 C.ar    1  UNL1       -0.0024
     23 C          64.1661   83.1214   11.1423 C.ar    1  UNL1       -0.0006
     24 C          64.5023   83.2822   12.5953 C.ar    1  UNL1       -0.0040
     25 C          63.9779   84.4609   13.3605 C.ar    1  UNL1       -0.0180
     26 C          63.1174   85.4789   12.6728 C.ar    1  UNL1       -0.0063
     27 C          64.3142   84.6216   14.8135 C.3     1  UNL1        0.0526
     28 C          63.9146   85.8702   15.5422 C.ar    1  UNL1       -0.0178
     29 C          64.2897   87.2135   14.9900 C.ar    1  UNL1       -0.0039
     30 C          63.8902   88.4623   15.7187 C.ar    1  UNL1       -0.0003
     31 C          63.1155   88.3678   16.9996 C.ar    1  UNL1       -0.0000
     32 C          62.7403   87.0245   17.5519 C.ar    1  UNL1       -0.0003
     33 C          63.1399   85.7758   16.8232 C.ar    1  UNL1       -0.0039
@<TRIPOS>BOND
     1     7     8    1
     2     8     9   ar
     3     9    10   ar
     4    10     6    1
     5     6     1    1
     6     1     2   ar
     7     2     3   ar
     8     3     4   ar
     9     4    20    1
    10    20    21    1
    11    21    22   ar
    12    22    23   ar
    13    23    24   ar
    14    24    25   ar
    15    25    27    1
    16    27    28    1
    17    28    29   ar
    18    29    30   ar
    19    30    31   ar
    20    31    32   ar
    21    32    33   ar
    22    25    26   ar
    23     4     5   ar
    24    10    11   ar
    25    11    12   ar
    26    12    13   ar
    27    13    14   ar
    28    14    15   ar
    29    15    16   ar
    30    16     8   ar
    31     5     1   ar
    32    15    11    1
    33    26    21   ar
    34    33    28   ar
    35     7    17    1
    36     7    18    1
    37    16    19    1
@<TRIPOS>MOLECULE
*****
 33 37 0 0 0
SMALL
GASTEIGER

@<TRIPOS>ATOM
      1 C          62.8393   90.1192   11.8159 C.ar    1  UNL1        0.0846
      2 C          62.0759   90.9110   10.7959 C.ar    1  UNL1        0.0370
      3 C          61.4325   89.9448    9.8459 C.ar    1  UNL1        0.0967
      4 N          61.7982   88.5560   10.2786 N.ar    1  UNL1       -0.2452
      5 N          62.6677   88.6638   11.4961 N.ar    1  UNL1       -0.1730
      6 C          63.6346   90.6837   12.9554 C.3     1  UNL1        0.0757
      7 N          66.2253   93.7313    9.6386 N.pl3   1  UNL1       -0.3441
      8 C          65.9871   93.2390   11.0354 C.ar    1  UNL1        0.1035
      9 C          64.9300   92.2075   11.2970 C.ar    1  UNL1        0.0297
     10 C          64.6918   91.7153   12.6938 C.ar    1  UNL1        0.0090
     11 C          65.5107   92.2546   13.8289 C.ar    1  UNL1        0.1366
     12 N          65.5029   91.9617   15.3000 N.ar    1  UNL1       -0.1258
     13 N          66.5552   92.8122   15.9475 N.ar    1  UNL1       -0.0406
     14 N          67.2134   93.6307   14.8766 N.ar    1  UNL1       -0.1095
     15 C          66.5678   93.2861   13.5672 C.ar    1  UNL1        0.1838
     16 N          66.8060   93.7783   12.1705 N.ar    1  UNL1       -0.3249
     17 H          65.6878   93.3773    8.8935 H       1  UNL1        0.1437
     18 H          66.9191   94.4083    9.4669 H       1  UNL1        0.1437
     19 H          67.4998   94.4553   11.9987 H       1  UNL1        0.1686
     20 C          61.3698   87.2828    9.6110 C.3     1  UNL1        0.1538
     21 C          62.1483   86.0203    9.8340 C.ar    1  UNL1        0.0018
     22 C          62.9221   85.4068    8.7048 C.ar    1  UNL1       -0.0024
     23 C          63.7006   84.1442    8.9279 C.ar    1  UNL1       -0.0006
     24 C          63.7053   83.4950   10.2801 C.ar    1  UNL1       -0.0040
     25 C          62.9315   84.1084   11.4092 C.ar    1  UNL1       -0.0180
     26 C          62.1530   85.3710   11.1862 C.ar    1  UNL1       -0.0063
     27 C          62.9362   83.4591   12.7615 C.3     1  UNL1        0.0526
     28 C          63.1427   84.2912   13.9923 C.ar    1  UNL1       -0.0178
     29 C          62.2029   84.1583   15.1538 C.ar    1  UNL1       -0.0039
     30 C          62.4093   84.9904   16.3847 C.ar    1  UNL1       -0.0003
     31 C          63.5555   85.9554   16.4540 C.ar    1  UNL1       -0.0000
     32 C          64.4954   86.0884   15.2925 C.ar    1  UNL1       -0.0003
     33 C          64.2889   85.2563   14.0617 C.ar    1  UNL1       -0.0039
@<TRIPOS>BOND
     1     7     8    1
     2     8     9   ar
     3     9    10   ar
     4    10     6    1
     5     6     1    1
     6     1     2   ar
     7     2     3   ar
     8     3     4   ar
     9     4    20    1
    10    20    21    1
    11    21    22   ar
    12    22    23   ar
    13    23    24   ar
    14    24    25   ar
    15    25    27    1
    16    27    28    1
    17    28    29   ar
    18    29    30   ar
    19    30    31   ar
    20    31    32   ar
    21    32    33   ar
    22    25    26   ar
    23     4     5   ar
    24    10    11   ar
    25    11    12   ar
    26    12    13   ar
    27    13    14   ar
    28    14    15   ar
    29    15    16   ar
    30    16     8   ar
    31     5     1   ar
    32    15    11    1
    33    26    21   ar
    34    33    28   ar
    35     7    17    1
    36     7    18    1
    37    16    19    1
@<TRIPOS>MOLECULE
*****
 33 37 0 0 0
SMALL
GASTEIGER

@<TRIPOS>ATOM
      1 C          65.6181   91.6866   13.2589 C.ar    1  UNL1        0.0846
      2 C          64.3746   91.3622   12.4854 C.ar    1  UNL1        0.0370
      3 C          63.4135   90.6839   13.4161 C.ar    1  UNL1        0.0967
      4 N          64.0631   90.5891   14.7648 N.ar    1  UNL1       -0.2452
      5 N          65.4256   91.2088   14.6677 N.ar    1  UNL1       -0.1730
      6 C          66.8398   92.3689   12.7186 C.3     1  UNL1        0.0757
      7 N          64.9520   96.8107   10.7929 N.pl3   1  UNL1       -0.3441
      8 C          65.7709   95.5654   10.6232 C.ar    1  UNL1        0.1035
      9 C          65.8959   94.5898   11.7557 C.ar    1  UNL1        0.0297
     10 C          66.7148   93.3445   11.5860 C.ar    1  UNL1        0.0090
     11 C          67.4086   93.0749   10.2837 C.ar    1  UNL1        0.1366
     12 N          68.2779   91.9416    9.8255 N.ar    1  UNL1       -0.1258
     13 N          68.6901   92.2168    8.4097 N.ar    1  UNL1       -0.0406
     14 N          68.0756   93.5202    7.9930 N.ar    1  UNL1       -0.1095
     15 C          67.2836   94.0505    9.1512 C.ar    1  UNL1        0.1838
     16 N          66.4648   95.2958    9.3210 N.ar    1  UNL1       -0.3249
     17 H          64.4966   96.9877   11.6476 H       1  UNL1        0.1437
     18 H          64.8700   97.4510   10.0496 H       1  UNL1        0.1437
     19 H          66.3827   95.9361    8.5777 H       1  UNL1        0.1686
     20 C          63.4566   89.9813   15.9949 C.3     1  UNL1        0.1538
     21 C          63.4642   88.4926   16.1777 C.ar    1  UNL1        0.0018
     22 C          62.7798   87.8790   17.3631 C.ar    1  UNL1       -0.0024
     23 C          62.7874   86.3902   17.5459 C.ar    1  UNL1       -0.0006
     24 C          63.4795   85.5150   16.5434 C.ar    1  UNL1       -0.0040
     25 C          64.1639   86.1286   15.3581 C.ar    1  UNL1       -0.0180
     26 C          64.1562   87.6173   15.1752 C.ar    1  UNL1       -0.0063
     27 C          64.8560   85.2533   14.3555 C.3     1  UNL1        0.0526
     28 C          64.0885   84.1827   13.6382 C.ar    1  UNL1       -0.0178
     29 C          63.4286   84.4845   12.3254 C.ar    1  UNL1       -0.0039
     30 C          62.6611   83.4138   11.6081 C.ar    1  UNL1       -0.0003
     31 C          62.5534   82.0413   12.2036 C.ar    1  UNL1       -0.0000
     32 C          63.2132   81.7394   13.5165 C.ar    1  UNL1       -0.0003
     33 C          63.9807   82.8101   14.2337 C.ar    1  UNL1       -0.0039
@<TRIPOS>BOND
     1     7     8    1
     2     8     9   ar
     3     9    10   ar
     4    10     6    1
     5     6     1    1
     6     1     2   ar
     7     2     3   ar
     8     3     4   ar
     9     4    20    1
    10    20    21    1
    11    21    22   ar
    12    22    23   ar
    13    23    24   ar
    14    24    25   ar
    15    25    27    1
    16    27    28    1
    17    28    29   ar
    18    29    30   ar
    19    30    31   ar
    20    31    32   ar
    21    32    33   ar
    22    25    26   ar
    23     4     5   ar
    24    10    11   ar
    25    11    12   ar
    26    12    13   ar
    27    13    14   ar
    28    14    15   ar
    29    15    16   ar
    30    16     8   ar
    31     5     1   ar
    32    15    11    1
    33    26    21   ar
    34    33    28   ar
    35     7    17    1
    36     7    18    1
    37    16    19    1
@<TRIPOS>MOLECULE
*****
 33 37 0 0 0
SMALL
GASTEIGER

@<TRIPOS>ATOM
      1 C          62.1746   85.8274   10.8762 C.ar    1  UNL1        0.0846
      2 C          61.0834   85.9518    9.8546 C.ar    1  UNL1        0.0370
      3 C          60.6216   87.3788    9.8410 C.ar    1  UNL1        0.0967
      4 N          61.4273   88.1364   10.8543 N.ar    1  UNL1       -0.2452
      5 N          62.3872   87.1776   11.4941 N.ar    1  UNL1       -0.1730
      6 C          62.9220   84.5731   11.2197 C.3     1  UNL1        0.0757
      7 N          61.9189   80.6874   14.5207 N.pl3   1  UNL1       -0.3441
      8 C          62.3801   82.0927   14.2700 C.ar    1  UNL1        0.1035
      9 C          62.4205   82.6303   12.8703 C.ar    1  UNL1        0.0297
     10 C          62.8816   84.0355   12.6195 C.ar    1  UNL1        0.0090
     11 C          63.3024   84.9030   13.7686 C.ar    1  UNL1        0.1366
     12 N          63.7992   86.3170   13.8293 N.ar    1  UNL1       -0.1258
     13 N          64.0658   86.6533   15.2666 N.ar    1  UNL1       -0.0406
     14 N          63.7338   85.4471   16.0942 N.ar    1  UNL1       -0.1095
     15 C          63.2620   84.3653   15.1684 C.ar    1  UNL1        0.1838
     16 N          62.8009   82.9601   15.4190 N.ar    1  UNL1       -0.3249
     17 H          61.6427   80.1180   13.7666 H       1  UNL1        0.1437
     18 H          61.8925   80.3346   15.4394 H       1  UNL1        0.1437
     19 H          62.7744   82.6073   16.3377 H       1  UNL1        0.1686
     20 C          61.2964   89.5966   11.1720 C.3     1  UNL1        0.1538
     21 C          62.5184   90.4094   11.4814 C.ar    1  UNL1        0.0018
     22 C          63.1463   91.2558   10.4138 C.ar    1  UNL1       -0.0024
     23 C          64.3685   92.0686   10.7232 C.ar    1  UNL1       -0.0006
     24 C          64.9627   92.0351   12.1000 C.ar    1  UNL1       -0.0040
     25 C          64.3348   91.1888   13.1675 C.ar    1  UNL1       -0.0180
     26 C          63.1128   90.3760   12.8582 C.ar    1  UNL1       -0.0063
     27 C          64.9292   91.1553   14.5444 C.3     1  UNL1        0.0526
     28 C          66.2730   91.7721   14.7964 C.ar    1  UNL1       -0.0178
     29 C          66.4750   92.6731   15.9784 C.ar    1  UNL1       -0.0039
     30 C          67.8189   93.2899   16.2305 C.ar    1  UNL1       -0.0003
     31 C          68.9609   93.0056   15.3005 C.ar    1  UNL1       -0.0000
     32 C          68.7590   92.1045   14.1183 C.ar    1  UNL1       -0.0003
     33 C          67.4151   91.4877   13.8664 C.ar    1  UNL1       -0.0039
@<TRIPOS>BOND
     1     7     8    1
     2     8     9   ar
     3     9    10   ar
     4    10     6    1
     5     6     1    1
     6     1     2   ar
     7     2     3   ar
     8     3     4   ar
     9     4    20    1
    10    20    21    1
    11    21    22   ar
    12    22    23   ar
    13    23    24   ar
    14    24    25   ar
    15    25    27    1
    16    27    28    1
    17    28    29   ar
    18    29    30   ar
    19    30    31   ar
    20    31    32   ar
    21    32    33   ar
    22    25    26   ar
    23     4     5   ar
    24    10    11   ar
    25    11    12   ar
    26    12    13   ar
    27    13    14   ar
    28    14    15   ar
    29    15    16   ar
    30    16     8   ar
    31     5     1   ar
    32    15    11    1
    33    26    21   ar
    34    33    28   ar
    35     7    17    1
    36     7    18    1
    37    16    19    1
@<TRIPOS>MOLECULE
*****
 33 37 0 0 0
SMALL
GASTEIGER

@<TRIPOS>ATOM
      1 C          62.3737   85.8350   10.9008 C.ar    1  UNL1        0.0846
      2 C          61.2386   86.1645    9.9771 C.ar    1  UNL1        0.0370
      3 C          60.9370   87.6271   10.1169 C.ar    1  UNL1        0.0967
      4 N          61.8855   88.2016   11.1269 N.ar    1  UNL1       -0.2452
      5 N          62.7734   87.0940   11.6114 N.ar    1  UNL1       -0.1730
      6 C          62.9991   84.4838   11.0820 C.3     1  UNL1        0.0757
      7 N          61.6956   80.0983   13.5456 N.pl3   1  UNL1       -0.3441
      8 C          62.1357   81.5316   13.5899 C.ar    1  UNL1        0.1035
      9 C          62.3474   82.2910   12.3139 C.ar    1  UNL1        0.0297
     10 C          62.7875   83.7244   12.3582 C.ar    1  UNL1        0.0090
     11 C          63.0159   84.3982   13.6787 C.ar    1  UNL1        0.1366
     12 N          63.4483   85.7899   14.0338 N.ar    1  UNL1       -0.1258
     13 N          63.5039   85.8906   15.5294 N.ar    1  UNL1       -0.0406
     14 N          63.1058   84.5612   16.0986 N.ar    1  UNL1       -0.1095
     15 C          62.8042   83.6388   14.9548 C.ar    1  UNL1        0.1838
     16 N          62.3641   82.2055   14.9104 N.ar    1  UNL1       -0.3249
     17 H          61.5457   79.6560   12.6789 H       1  UNL1        0.1437
     18 H          61.5566   79.5999   14.3832 H       1  UNL1        0.1437
     19 H          62.2251   81.7071   15.7480 H       1  UNL1        0.1686
     20 C          61.9371   89.6326   11.5740 C.3     1  UNL1        0.1538
     21 C          63.1091   90.1285   12.3679 C.ar    1  UNL1        0.0018
     22 C          63.5995   89.3458   13.5499 C.ar    1  UNL1       -0.0024
     23 C          64.7715   89.8418   14.3438 C.ar    1  UNL1       -0.0006
     24 C          65.4532   91.1204   13.9558 C.ar    1  UNL1       -0.0040
     25 C          64.9628   91.9030   12.7739 C.ar    1  UNL1       -0.0180
     26 C          63.7908   91.4071   11.9800 C.ar    1  UNL1       -0.0063
     27 C          65.6446   93.1816   12.3858 C.3     1  UNL1        0.0526
     28 C          66.5314   93.2217   11.1769 C.ar    1  UNL1       -0.0178
     29 C          66.4749   94.3949   10.2439 C.ar    1  UNL1       -0.0039
     30 C          67.3618   94.4351    9.0348 C.ar    1  UNL1       -0.0003
     31 C          68.3052   93.3021    8.7587 C.ar    1  UNL1       -0.0000
     32 C          68.3618   92.1288    9.6917 C.ar    1  UNL1       -0.0003
     33 C          67.4749   92.0887   10.9008 C.ar    1  UNL1       -0.0039
@<TRIPOS>BOND
     1     7     8    1
     2     8     9   ar
     3     9    10   ar
     4    10     6    1
     5     6     1    1
     6     1     2   ar
     7     2     3   ar
     8     3     4   ar
     9     4    20    1
    10    20    21    1
    11    21    22   ar
    12    22    23   ar
    13    23    24   ar
    14    24    25   ar
    15    25    27    1
    16    27    28    1
    17    28    29   ar
    18    29    30   ar
    19    30    31   ar
    20    31    32   ar
    21    32    33   ar
    22    25    26   ar
    23     4     5   ar
    24    10    11   ar
    25    11    12   ar
    26    12    13   ar
    27    13    14   ar
    28    14    15   ar
    29    15    16   ar
    30    16     8   ar
    31     5     1   ar
    32    15    11    1
    33    26    21   ar
    34    33    28   ar
    35     7    17    1
    36     7    18    1
    37    16    19    1
@<TRIPOS>MOLECULE
*****
 33 37 0 0 0
SMALL
GASTEIGER

@<TRIPOS>ATOM
      1 C          62.1574   85.7036   10.7189 C.ar    1  UNL1        0.0846
      2 C          61.2793   85.9794    9.5346 C.ar    1  UNL1        0.0370
      3 C          60.8622   87.4191    9.5922 C.ar    1  UNL1        0.0967
      4 N          61.4825   88.0330   10.8121 N.ar    1  UNL1       -0.2452
      5 N          62.2830   86.9727   11.5085 N.ar    1  UNL1       -0.1730
      6 C          62.7976   84.3893   11.0548 C.3     1  UNL1        0.0757
      7 N          62.5675   85.2119   16.1804 N.pl3   1  UNL1       -0.3441
      8 C          62.6076   84.2658   15.0170 C.ar    1  UNL1        0.1035
      9 C          62.6825   84.8006   13.6177 C.ar    1  UNL1        0.0297
     10 C          62.7226   83.8544   12.4543 C.ar    1  UNL1        0.0090
     11 C          62.6878   82.3736   12.6904 C.ar    1  UNL1        0.1366
     12 N          62.7138   81.2062   11.7489 N.ar    1  UNL1       -0.1258
     13 N          62.6550   79.9500   12.5664 N.ar    1  UNL1       -0.0406
     14 N          62.5925   80.3409   14.0132 N.ar    1  UNL1       -0.1095
     15 C          62.6128   81.8388   14.0899 C.ar    1  UNL1        0.1838
     16 N          62.5727   82.7849   15.2532 N.ar    1  UNL1       -0.3249
     17 H          62.5904   86.1839   16.0254 H       1  UNL1        0.1437
     18 H          62.5183   84.8609   17.0989 H       1  UNL1        0.1437
     19 H          62.5235   82.4340   16.1716 H       1  UNL1        0.1686
     20 C          61.3293   89.4572   11.2575 C.3     1  UNL1        0.1538
     21 C          62.5444   90.2857   11.5522 C.ar    1  UNL1        0.0018
     22 C          63.1028   91.1985   10.5008 C.ar    1  UNL1       -0.0024
     23 C          64.3180   92.0270   10.7955 C.ar    1  UNL1       -0.0006
     24 C          64.9747   91.9430   12.1415 C.ar    1  UNL1       -0.0040
     25 C          64.4163   91.0303   13.1927 C.ar    1  UNL1       -0.0180
     26 C          63.2012   90.2018   12.8981 C.ar    1  UNL1       -0.0063
     27 C          65.0731   90.9463   14.5387 C.3     1  UNL1        0.0526
     28 C          66.3577   91.6775   14.7934 C.ar    1  UNL1       -0.0178
     29 C          67.5430   91.4431   13.9046 C.ar    1  UNL1       -0.0039
     30 C          68.8278   92.1743   14.1592 C.ar    1  UNL1       -0.0003
     31 C          68.9271   93.1400   15.3027 C.ar    1  UNL1       -0.0000
     32 C          67.7418   93.3745   16.1916 C.ar    1  UNL1       -0.0003
     33 C          66.4571   92.6432   15.9369 C.ar    1  UNL1       -0.0039
@<TRIPOS>BOND
     1     7     8    1
     2     8     9   ar
     3     9    10   ar
     4    10     6    1
     5     6     1    1
     6     1     2   ar
     7     2     3   ar
     8     3     4   ar
     9     4    20    1
    10    20    21    1
    11    21    22   ar
    12    22    23   ar
    13    23    24   ar
    14    24    25   ar
    15    25    27    1
    16    27    28    1
    17    28    29   ar
    18    29    30   ar
    19    30    31   ar
    20    31    32   ar
    21    32    33   ar
    22    25    26   ar
    23     4     5   ar
    24    10    11   ar
    25    11    12   ar
    26    12    13   ar
    27    13    14   ar
    28    14    15   ar
    29    15    16   ar
    30    16     8   ar
    31     5     1   ar
    32    15    11    1
    33    26    21   ar
    34    33    28   ar
    35     7    17    1
    36     7    18    1
    37    16    19    1
