@<TRIPOS>MOLECULE
*****
 35 39 0 0 0
SMALL
GASTEIGER

@<TRIPOS>ATOM
      1 N          64.8678   90.8595   13.8662 N.ar    1  UNL1       -0.3191
      2 C          65.8711   91.8093   13.2820 C.ar    1  UNL1        0.0594
      3 C          65.4292   92.1520   11.8902 C.ar    1  UNL1       -0.0052
      4 C          64.1528   91.4141   11.6141 C.ar    1  UNL1        0.0132
      5 C          63.2617   91.3664   10.4085 C.ar    1  UNL1        0.0012
      6 C          62.0235   90.5198   10.4241 C.ar    1  UNL1        0.0012
      7 C          61.6765   89.7209   11.6454 C.ar    1  UNL1        0.0154
      8 C          62.5677   89.7687   12.8510 C.ar    1  UNL1        0.0183
      9 C          63.8058   90.6153   12.8354 C.ar    1  UNL1        0.0600
     10 C          66.1391   93.0713   10.9410 C.3     1  UNL1        0.0238
     11 C          65.6848   94.4933   10.7932 C.3     1  UNL1        0.0044
     12 C          66.3947   95.4126    9.8440 C.3     1  UNL1        0.0003
     13 C          67.5588   94.9101    9.0426 C.3     1  UNL1        0.0000
     14 C          68.0131   93.4882    9.1905 C.3     1  UNL1        0.0003
     15 C          67.3032   92.5689   10.1396 C.3     1  UNL1        0.0044
     16 C          67.1005   92.3256   13.9691 C.ar    1  UNL1        0.0562
     17 C          67.1298   93.2975   15.1113 C.ar    1  UNL1        0.0452
     18 C          68.5638   93.5333   15.4827 C.ar    1  UNL1        0.1798
     19 O          69.4209   92.7072   14.5700 O.2     1  UNL1       -0.4473
     20 C          68.5165   91.9608   13.6345 C.ar    1  UNL1        0.1811
     21 C          60.4383   88.8743   11.6610 C.2     1  UNL1        0.0729
     22 O          60.2391   87.8176   10.6152 O.co2   1  UNL1       -0.5446
     23 O          59.3994   89.0845   12.7223 O.co2   1  UNL1       -0.5446
     24 C          64.9177   90.2593   15.2399 C.3     1  UNL1        0.1919
     25 N          63.5333   85.0318   15.1547 N.3     1  UNL1       -0.2711
     26 C          62.4301   85.7426   15.8811 C.3     1  UNL1        0.0939
     27 C          62.5004   87.2271   16.0840 C.3     1  UNL1        0.1108
     28 N          63.6739   88.0009   15.5605 N.am    1  UNL1       -0.2751
     29 C          63.7442   89.4855   15.7634 C.2     1  UNL1        0.2488
     30 O          62.6409   90.1962   16.4899 O.2     1  UNL1       -0.2728
     31 C          64.7772   87.2902   14.8341 C.3     1  UNL1        0.1108
     32 C          64.7069   85.8056   14.6311 C.3     1  UNL1        0.0939
     33 C          62.1307   82.8611   14.8887 C.3     1  UNL1        0.0173
     34 C          63.4631   83.5472   14.9517 C.3     1  UNL1        0.0577
     35 C          64.7253   82.7489   14.8118 C.3     1  UNL1        0.0173
@<TRIPOS>UNITY_ATOM_ATTR
22 1
charge -1
@<TRIPOS>BOND
     1    33    34    1
     2    34    35    1
     3    34    25    1
     4    25    26    1
     5    26    27    1
     6    27    28    1
     7    28    29   am
     8    29    30    2
     9    29    24    1
    10    24     1    1
    11     1     2   ar
    12     2    16    1
    13    16    17   ar
    14    17    18   ar
    15    18    19   ar
    16    19    20   ar
    17     2     3   ar
    18     3    10    1
    19    10    11    1
    20    11    12    1
    21    12    13    1
    22    13    14    1
    23    14    15    1
    24     3     4   ar
    25     4     5   ar
    26     5     6   ar
    27     6     7   ar
    28     7    21    1
    29    21    22   ar
    30    21    23   ar
    31     7     8   ar
    32     8     9   ar
    33    28    31    1
    34    31    32    1
    35    32    25    1
    36     9     1   ar
    37    20    16   ar
    38    15    10    1
    39     9     4   ar
@<TRIPOS>MOLECULE
*****
 35 39 0 0 0
SMALL
GASTEIGER

@<TRIPOS>ATOM
      1 N          62.1026   88.3272   11.3131 N.ar    1  UNL1       -0.3191
      2 C          62.6895   87.0470   11.8295 C.ar    1  UNL1        0.0594
      3 C          62.3443   85.9549   10.8609 C.ar    1  UNL1       -0.0052
      4 C          61.5441   86.5601    9.7458 C.ar    1  UNL1        0.0132
      5 C          60.9322   85.9656    8.5121 C.ar    1  UNL1        0.0012
      6 C          60.1708   86.8372    7.5579 C.ar    1  UNL1        0.0012
      7 C          60.0214   88.3034    7.8374 C.ar    1  UNL1        0.0154
      8 C          60.6333   88.8979    9.0711 C.ar    1  UNL1        0.0183
      9 C          61.3947   88.0263   10.0253 C.ar    1  UNL1        0.0600
     10 C          62.7315   84.5111   10.9854 C.3     1  UNL1        0.0238
     11 C          63.7357   83.9197   10.0410 C.3     1  UNL1        0.0044
     12 C          64.1229   82.4759   10.1656 C.3     1  UNL1        0.0003
     13 C          63.5058   81.6234   11.2345 C.3     1  UNL1        0.0000
     14 C          62.5015   82.2148   12.1788 C.3     1  UNL1        0.0003
     15 C          62.1144   83.6587   12.0543 C.3     1  UNL1        0.0044
     16 C          63.4824   86.8871   13.0927 C.ar    1  UNL1        0.0562
     17 C          63.9061   85.5868   13.7091 C.ar    1  UNL1        0.0452
     18 C          64.6763   85.8954   14.9587 C.ar    1  UNL1        0.1798
     19 O          64.7287   87.3863   15.1146 O.2     1  UNL1       -0.4473
     20 C          63.9908   87.9992   13.9614 C.ar    1  UNL1        0.1811
     21 C          59.2600   89.1750    6.8830 C.2     1  UNL1        0.0729
     22 O          57.7612   89.1226    6.8521 O.co2   1  UNL1       -0.5446
     23 O          59.9974   90.0989    5.9597 O.co2   1  UNL1       -0.5446
     24 C          62.2055   89.6721   11.9692 C.3     1  UNL1        0.1919
     25 N          66.6180   92.1664   13.8555 N.3     1  UNL1       -0.2711
     26 C          66.3829   92.7195   12.4811 C.3     1  UNL1        0.0939
     27 C          65.2210   92.2342   11.6660 C.3     1  UNL1        0.1108
     28 N          64.2942   91.1958   12.2252 N.am    1  UNL1       -0.2751
     29 C          63.1323   90.7105   11.4101 C.2     1  UNL1        0.2488
     30 O          62.8973   91.2637   10.0357 O.2     1  UNL1       -0.2728
     31 C          64.5293   90.6427   13.5995 C.3     1  UNL1        0.1108
     32 C          65.6912   91.1280   14.4147 C.3     1  UNL1        0.0939
     33 C          69.1816   92.3283   14.2453 C.3     1  UNL1        0.0173
     34 C          67.7800   92.6516   14.6707 C.3     1  UNL1        0.0577
     35 C          67.5402   93.4601   15.9112 C.3     1  UNL1        0.0173
@<TRIPOS>UNITY_ATOM_ATTR
22 1
charge -1
@<TRIPOS>BOND
     1    33    34    1
     2    34    35    1
     3    34    25    1
     4    25    26    1
     5    26    27    1
     6    27    28    1
     7    28    29   am
     8    29    30    2
     9    29    24    1
    10    24     1    1
    11     1     2   ar
    12     2    16    1
    13    16    17   ar
    14    17    18   ar
    15    18    19   ar
    16    19    20   ar
    17     2     3   ar
    18     3    10    1
    19    10    11    1
    20    11    12    1
    21    12    13    1
    22    13    14    1
    23    14    15    1
    24     3     4   ar
    25     4     5   ar
    26     5     6   ar
    27     6     7   ar
    28     7    21    1
    29    21    22   ar
    30    21    23   ar
    31     7     8   ar
    32     8     9   ar
    33    28    31    1
    34    31    32    1
    35    32    25    1
    36     9     1   ar
    37    20    16   ar
    38    15    10    1
    39     9     4   ar
@<TRIPOS>MOLECULE
*****
 35 39 0 0 0
SMALL
GASTEIGER

@<TRIPOS>ATOM
      1 N          61.5760   87.7971   11.1243 N.ar    1  UNL1       -0.3191
      2 C          61.2846   87.4926    9.6848 C.ar    1  UNL1        0.0594
      3 C          61.8802   86.1537    9.3645 C.ar    1  UNL1       -0.0052
      4 C          62.5397   85.6307   10.6061 C.ar    1  UNL1        0.0132
      5 C          63.2871   84.3609   10.8868 C.ar    1  UNL1        0.0012
      6 C          63.8465   84.1067   12.2552 C.ar    1  UNL1        0.0012
      7 C          63.6585   85.1225   13.3428 C.ar    1  UNL1        0.0154
      8 C          62.9110   86.3923   13.0621 C.ar    1  UNL1        0.0183
      9 C          62.3516   86.6464   11.6938 C.ar    1  UNL1        0.0600
     10 C          61.8258   85.4595    8.0359 C.3     1  UNL1        0.0238
     11 C          63.0966   85.0653    7.3431 C.3     1  UNL1        0.0044
     12 C          63.0423   84.3712    6.0145 C.3     1  UNL1        0.0003
     13 C          61.7172   84.0712    5.3786 C.3     1  UNL1        0.0000
     14 C          60.4465   84.4654    6.0714 C.3     1  UNL1        0.0003
     15 C          60.5009   85.1596    7.4000 C.3     1  UNL1        0.0044
     16 C          60.5300   88.3724    8.7327 C.ar    1  UNL1        0.0562
     17 C          59.5111   87.9172    7.7304 C.ar    1  UNL1        0.0452
     18 C          59.0133   89.1255    6.9939 C.ar    1  UNL1        0.1798
     19 O          59.7246   90.3274    7.5410 O.2     1  UNL1       -0.4473
     20 C          60.6620   89.8620    8.6156 C.ar    1  UNL1        0.1811
     21 C          64.2179   84.8683   14.7113 C.2     1  UNL1        0.0729
     22 O          64.6662   86.0182   15.5637 O.co2   1  UNL1       -0.5446
     23 O          64.3290   83.4642   15.2272 O.co2   1  UNL1       -0.5446
     24 C          61.1640   89.0350   11.8646 C.3     1  UNL1        0.1919
     25 N          65.2130   92.5206   11.0242 N.3     1  UNL1       -0.2711
     26 C          65.1664   92.2862   12.5050 C.3     1  UNL1        0.0939
     27 C          64.1425   91.3562   13.0853 C.3     1  UNL1        0.1108
     28 N          63.1652   90.6606   12.1847 N.am    1  UNL1       -0.2751
     29 C          62.1413   89.7306   12.7650 C.2     1  UNL1        0.2488
     30 O          62.0947   89.4963   14.2459 O.2     1  UNL1       -0.2728
     31 C          63.2118   90.8950   10.7039 C.3     1  UNL1        0.1108
     32 C          64.2357   91.8250   10.1236 C.3     1  UNL1        0.0939
     33 C          67.4945   92.8990    9.8403 C.3     1  UNL1        0.0173
     34 C          66.2369   93.4506   10.4438 C.3     1  UNL1        0.0577
     35 C          66.0032   94.9320   10.4669 C.3     1  UNL1        0.0173
@<TRIPOS>UNITY_ATOM_ATTR
22 1
charge -1
@<TRIPOS>BOND
     1    33    34    1
     2    34    35    1
     3    34    25    1
     4    25    26    1
     5    26    27    1
     6    27    28    1
     7    28    29   am
     8    29    30    2
     9    29    24    1
    10    24     1    1
    11     1     2   ar
    12     2    16    1
    13    16    17   ar
    14    17    18   ar
    15    18    19   ar
    16    19    20   ar
    17     2     3   ar
    18     3    10    1
    19    10    11    1
    20    11    12    1
    21    12    13    1
    22    13    14    1
    23    14    15    1
    24     3     4   ar
    25     4     5   ar
    26     5     6   ar
    27     6     7   ar
    28     7    21    1
    29    21    22   ar
    30    21    23   ar
    31     7     8   ar
    32     8     9   ar
    33    28    31    1
    34    31    32    1
    35    32    25    1
    36     9     1   ar
    37    20    16   ar
    38    15    10    1
    39     9     4   ar
@<TRIPOS>MOLECULE
*****
 35 39 0 0 0
SMALL
GASTEIGER

@<TRIPOS>ATOM
      1 N          63.8020   90.0318   13.1993 N.ar    1  UNL1       -0.3191
      2 C          64.8276   91.1244   13.1330 C.ar    1  UNL1        0.0594
      3 C          64.7337   91.7668   11.7808 C.ar    1  UNL1       -0.0052
      4 C          63.6501   91.0712   11.0114 C.ar    1  UNL1        0.0132
      5 C          63.1134   91.2757    9.6258 C.ar    1  UNL1        0.0012
      6 C          62.0007   90.4079    9.1169 C.ar    1  UNL1        0.0012
      7 C          61.4249   89.3357    9.9936 C.ar    1  UNL1        0.0154
      8 C          61.9617   89.1312   11.3792 C.ar    1  UNL1        0.0183
      9 C          63.0743   89.9989   11.8881 C.ar    1  UNL1        0.0600
     10 C          65.5757   92.9049   11.2850 C.3     1  UNL1        0.0238
     11 C          65.5109   94.2389   11.9680 C.3     1  UNL1        0.0044
     12 C          66.3528   95.3770   11.4722 C.3     1  UNL1        0.0003
     13 C          67.2595   95.1812   10.2934 C.3     1  UNL1        0.0000
     14 C          67.3243   93.8473    9.6104 C.3     1  UNL1        0.0003
     15 C          66.4823   92.7092   10.1063 C.3     1  UNL1        0.0044
     16 C          65.7799   91.5073   14.2269 C.ar    1  UNL1        0.0562
     17 C          67.2736   91.3782   14.1808 C.ar    1  UNL1        0.0452
     18 C          67.8226   91.8777   15.4843 C.ar    1  UNL1        0.1798
     19 O          66.6682   92.3156   16.3360 O.2     1  UNL1       -0.4473
     20 C          65.4057   92.0867   15.5589 C.ar    1  UNL1        0.1811
     21 C          60.3122   88.4679    9.4846 C.2     1  UNL1        0.0729
     22 O          59.5240   88.8887    8.2798 O.co2   1  UNL1       -0.5446
     23 O          59.9879   87.1793   10.1804 O.co2   1  UNL1       -0.5446
     24 C          63.5486   89.1303   14.3712 C.3     1  UNL1        0.1919
     25 N          63.5307   83.9985   12.6642 N.3     1  UNL1       -0.2711
     26 C          64.7264   84.1349   13.5596 C.3     1  UNL1        0.0939
     27 C          65.0297   85.4520   14.2102 C.3     1  UNL1        0.1108
     28 N          64.1375   86.6326   13.9654 N.am    1  UNL1       -0.2751
     29 C          64.4408   87.9497   14.6160 C.2     1  UNL1        0.2488
     30 O          65.6365   88.0861   15.5114 O.2     1  UNL1       -0.2728
     31 C          62.9418   86.4962   13.0699 C.3     1  UNL1        0.1108
     32 C          62.6385   85.1791   12.4194 C.3     1  UNL1        0.0939
     33 C          62.3412   81.6891   12.7065 C.3     1  UNL1        0.0173
     34 C          63.2273   82.6814   12.0136 C.3     1  UNL1        0.0577
     35 C          63.8100   82.3566   10.6701 C.3     1  UNL1        0.0173
@<TRIPOS>UNITY_ATOM_ATTR
22 1
charge -1
@<TRIPOS>BOND
     1    33    34    1
     2    34    35    1
     3    34    25    1
     4    25    26    1
     5    26    27    1
     6    27    28    1
     7    28    29   am
     8    29    30    2
     9    29    24    1
    10    24     1    1
    11     1     2   ar
    12     2    16    1
    13    16    17   ar
    14    17    18   ar
    15    18    19   ar
    16    19    20   ar
    17     2     3   ar
    18     3    10    1
    19    10    11    1
    20    11    12    1
    21    12    13    1
    22    13    14    1
    23    14    15    1
    24     3     4   ar
    25     4     5   ar
    26     5     6   ar
    27     6     7   ar
    28     7    21    1
    29    21    22   ar
    30    21    23   ar
    31     7     8   ar
    32     8     9   ar
    33    28    31    1
    34    31    32    1
    35    32    25    1
    36     9     1   ar
    37    20    16   ar
    38    15    10    1
    39     9     4   ar
@<TRIPOS>MOLECULE
*****
 35 39 0 0 0
SMALL
GASTEIGER

@<TRIPOS>ATOM
      1 N          61.6819   87.9835   11.6214 N.ar    1  UNL1       -0.3191
      2 C          62.3692   86.7260   12.0644 C.ar    1  UNL1        0.0594
      3 C          62.2841   85.7320   10.9442 C.ar    1  UNL1       -0.0052
      4 C          61.5441   86.3753    9.8090 C.ar    1  UNL1        0.0132
      5 C          61.1612   85.8737    8.4482 C.ar    1  UNL1        0.0012
      6 C          60.4060   86.7636    7.5060 C.ar    1  UNL1        0.0012
      7 C          60.0339   88.1551    7.9246 C.ar    1  UNL1        0.0154
      8 C          60.4168   88.6567    9.2853 C.ar    1  UNL1        0.0183
      9 C          61.1720   87.7668   10.2275 C.ar    1  UNL1        0.0600
     10 C          62.8410   84.3393   10.9570 C.3     1  UNL1        0.0238
     11 C          63.8753   83.9359    9.9481 C.3     1  UNL1        0.0044
     12 C          64.4323   82.5432    9.9609 C.3     1  UNL1        0.0003
     13 C          63.9551   81.5539   10.9824 C.3     1  UNL1        0.0000
     14 C          62.9209   81.9573   11.9912 C.3     1  UNL1        0.0003
     15 C          62.3639   83.3500   11.9784 C.3     1  UNL1        0.0044
     16 C          63.0263   86.5018   13.3940 C.ar    1  UNL1        0.0562
     17 C          64.3570   87.0453   13.8227 C.ar    1  UNL1        0.0452
     18 C          64.6212   86.5741   15.2221 C.ar    1  UNL1        0.1798
     19 O          63.4538   85.7393   15.6583 O.2     1  UNL1       -0.4473
     20 C          62.4681   85.6946   14.5285 C.ar    1  UNL1        0.1811
     21 C          59.2787   89.0451    6.9823 C.2     1  UNL1        0.0729
     22 O          60.0172   90.0374    6.1338 O.co2   1  UNL1       -0.5446
     23 O          57.7852   88.9426    6.8886 O.co2   1  UNL1       -0.5446
     24 C          61.5310   89.2376   12.4304 C.3     1  UNL1        0.1919
     25 N          65.5630   92.5705   11.0573 N.3     1  UNL1       -0.2711
     26 C          65.7911   92.2121   12.4959 C.3     1  UNL1        0.0939
     27 C          64.8400   91.2894   13.1988 C.3     1  UNL1        0.1108
     28 N          63.6610   90.7249   12.4631 N.am    1  UNL1       -0.2751
     29 C          62.7100   89.8021   13.1660 C.2     1  UNL1        0.2488
     30 O          62.9382   89.4438   14.6047 O.2     1  UNL1       -0.2728
     31 C          63.4330   91.0832   11.0245 C.3     1  UNL1        0.1108
     32 C          64.3840   92.0060   10.3216 C.3     1  UNL1        0.0939
     33 C          66.2578   94.9712   10.3476 C.3     1  UNL1        0.0173
     34 C          66.5140   93.4933   10.3543 C.3     1  UNL1        0.0577
     35 C          67.7210   92.9381    9.6580 C.3     1  UNL1        0.0173
@<TRIPOS>UNITY_ATOM_ATTR
22 1
charge -1
@<TRIPOS>BOND
     1    33    34    1
     2    34    35    1
     3    34    25    1
     4    25    26    1
     5    26    27    1
     6    27    28    1
     7    28    29   am
     8    29    30    2
     9    29    24    1
    10    24     1    1
    11     1     2   ar
    12     2    16    1
    13    16    17   ar
    14    17    18   ar
    15    18    19   ar
    16    19    20   ar
    17     2     3   ar
    18     3    10    1
    19    10    11    1
    20    11    12    1
    21    12    13    1
    22    13    14    1
    23    14    15    1
    24     3     4   ar
    25     4     5   ar
    26     5     6   ar
    27     6     7   ar
    28     7    21    1
    29    21    22   ar
    30    21    23   ar
    31     7     8   ar
    32     8     9   ar
    33    28    31    1
    34    31    32    1
    35    32    25    1
    36     9     1   ar
    37    20    16   ar
    38    15    10    1
    39     9     4   ar
@<TRIPOS>MOLECULE
*****
 35 39 0 0 0
SMALL
GASTEIGER

@<TRIPOS>ATOM
      1 N          61.5604   87.1672   11.0397 N.ar    1  UNL1       -0.3191
      2 C          61.2688   86.9673    9.5819 C.ar    1  UNL1        0.0594
      3 C          61.9639   85.7145    9.1378 C.ar    1  UNL1       -0.0052
      4 C          62.6850   85.1400   10.3210 C.ar    1  UNL1        0.0132
      5 C          63.5365   83.9154   10.4799 C.ar    1  UNL1        0.0012
      6 C          64.1386   83.5887   11.8143 C.ar    1  UNL1        0.0012
      7 C          63.8892   84.4865   12.9898 C.ar    1  UNL1        0.0154
      8 C          63.0378   85.7111   12.8308 C.ar    1  UNL1        0.0183
      9 C          62.4356   86.0379   11.4964 C.ar    1  UNL1        0.0600
     10 C          61.9417   85.1374    7.7534 C.3     1  UNL1        0.0238
     11 C          63.2275   84.9096    7.0151 C.3     1  UNL1        0.0044
     12 C          63.2053   84.3325    5.6307 C.3     1  UNL1        0.0003
     13 C          61.8974   83.9831    4.9847 C.3     1  UNL1        0.0000
     14 C          60.6117   84.2108    5.7230 C.3     1  UNL1        0.0003
     15 C          60.6339   84.7879    7.1073 C.3     1  UNL1        0.0044
     16 C          60.4296   87.8630    8.7197 C.ar    1  UNL1        0.0562
     17 C          60.8047   89.2364    8.2474 C.ar    1  UNL1        0.0452
     18 C          59.6748   89.7648    7.4142 C.ar    1  UNL1        0.1798
     19 O          58.6013   88.7180    7.3717 O.2     1  UNL1       -0.4473
     20 C          59.0678   87.5427    8.1785 C.ar    1  UNL1        0.1811
     21 C          64.4914   84.1597   14.3242 C.2     1  UNL1        0.0729
     22 O          65.6779   84.9314   14.8209 O.co2   1  UNL1       -0.5446
     23 O          63.9071   83.0611   15.1619 O.co2   1  UNL1       -0.5446
     24 C          61.0639   88.2979   11.8912 C.3     1  UNL1        0.1919
     25 N          65.2131   91.2015   13.7895 N.3     1  UNL1       -0.2711
     26 C          64.4851   92.0947   12.8292 C.3     1  UNL1        0.0939
     27 C          63.2658   91.5920   12.1145 C.3     1  UNL1        0.1108
     28 N          62.7745   90.1962   12.3602 N.am    1  UNL1       -0.2751
     29 C          61.5552   89.6936   11.6456 C.2     1  UNL1        0.2488
     30 O          60.8272   90.5869   10.6853 O.2     1  UNL1       -0.2728
     31 C          63.5026   89.3031   13.3205 C.3     1  UNL1        0.1108
     32 C          64.7218   89.8057   14.0351 C.3     1  UNL1        0.0939
     33 C          66.3077   92.2885   15.8800 C.3     1  UNL1        0.0173
     34 C          66.4324   91.7041   14.5042 C.3     1  UNL1        0.0577
     35 C          67.7763   91.6222   13.8430 C.3     1  UNL1        0.0173
@<TRIPOS>UNITY_ATOM_ATTR
22 1
charge -1
@<TRIPOS>BOND
     1    33    34    1
     2    34    35    1
     3    34    25    1
     4    25    26    1
     5    26    27    1
     6    27    28    1
     7    28    29   am
     8    29    30    2
     9    29    24    1
    10    24     1    1
    11     1     2   ar
    12     2    16    1
    13    16    17   ar
    14    17    18   ar
    15    18    19   ar
    16    19    20   ar
    17     2     3   ar
    18     3    10    1
    19    10    11    1
    20    11    12    1
    21    12    13    1
    22    13    14    1
    23    14    15    1
    24     3     4   ar
    25     4     5   ar
    26     5     6   ar
    27     6     7   ar
    28     7    21    1
    29    21    22   ar
    30    21    23   ar
    31     7     8   ar
    32     8     9   ar
    33    28    31    1
    34    31    32    1
    35    32    25    1
    36     9     1   ar
    37    20    16   ar
    38    15    10    1
    39     9     4   ar
