@<TRIPOS>MOLECULE
*****
 34 37 0 0 0
SMALL
GASTEIGER

@<TRIPOS>ATOM
      1 C          64.2947   89.0068   15.1476 C.ar    1  UNL1        0.0505
      2 C          63.5586   89.1583   16.4458 C.ar    1  UNL1        0.0170
      3 C          62.9083   87.9661   17.0828 C.ar    1  UNL1        0.0307
      4 C          62.9941   86.6224   16.4216 C.ar    1  UNL1        0.1401
      5 F          62.3437   85.4302   17.0586 F       1  UNL1       -0.2044
      6 C          63.7301   86.4710   15.1235 C.ar    1  UNL1        0.0523
      7 C          64.3805   87.6631   14.4865 C.ar    1  UNL1        0.0167
      8 C          63.8158   85.1272   14.4624 C.3     1  UNL1        0.2179
      9 C          64.6233   84.8614   15.6983 C.3     1  UNL1        0.0602
     10 C          64.1820   83.6911   14.2305 C.3     1  UNL1        0.1808
     11 N          63.7110   82.9875   12.9924 N.ar    1  UNL1       -0.2384
     12 N          63.9121   81.5864   12.4962 N.ar    1  UNL1       -0.1584
     13 C          63.1992   81.4528   11.1832 C.ar    1  UNL1        0.1704
     14 C          62.5575   82.7715   10.8679 C.ar    1  UNL1        0.0576
     15 C          62.8738   83.7200   11.9860 C.ar    1  UNL1        0.1615
     16 C          62.5077   85.1560   12.2179 C.2     1  UNL1        0.3305
     17 N          61.6705   85.8885   11.2116 N.pl3   1  UNL1       -0.2452
     18 N          62.9787   85.8596   13.4561 N.2     1  UNL1       -0.0666
     19 H          61.3614   85.4267   10.3989 H       1  UNL1        0.2885
     20 H          61.4302   86.8310   11.3638 H       1  UNL1        0.2885
     21 C          63.1387   80.2175   10.3344 C.1     1  UNL1        0.1216
     22 N          63.0781   78.9822    9.4857 N.1     1  UNL1       -0.1892
     23 C          64.3594   90.7971   13.2659 C.2     1  UNL1        0.2688
     24 O          63.1234   90.2031   12.6583 O.2     1  UNL1       -0.2681
     25 N          64.9451   90.1989   14.5106 N.am    1  UNL1       -0.2791
     26 H          65.7564   90.5888   14.9094 H       1  UNL1        0.1552
     27 C          66.3106   94.3735   11.3549 C.ar    1  UNL1        0.2449
     28 C          66.3991   94.1746   12.8390 C.ar    1  UNL1        0.1565
     29 N          65.7486   92.9824   13.4760 N.ar    1  UNL1       -0.2328
     30 C          65.0099   91.9893   12.6289 C.ar    1  UNL1        0.1541
     31 C          64.9214   92.1881   11.1447 C.ar    1  UNL1        0.1258
     32 N          65.5718   93.3802   10.5078 N.ar    1  UNL1       -0.2071
     33 C          67.3860   95.5094    9.2804 C.3     1  UNL1        0.2543
     34 O          66.9611   95.5657   10.7179 O.3     1  UNL1       -0.4551
@<TRIPOS>BOND
     1    33    34    1
     2    34    27    1
     3    27    28   ar
     4    28    29   ar
     5    29    30   ar
     6    30    23    1
     7    23    24    2
     8    23    25   am
     9    25     1    1
    10     1     2   ar
    11     2     3   ar
    12     3     4   ar
    13     4     5    1
    14     4     6   ar
    15     6     8    1
    16     8     9    1
    17     8    10    1
    18    10    11    1
    19    11    12   ar
    20    12    13   ar
    21    13    21    1
    22    21    22    3
    23    13    14   ar
    24    14    15   ar
    25    15    16    1
    26    16    17    1
    27    16    18    2
    28     6     7   ar
    29    30    31   ar
    30    31    32   ar
    31    32    27   ar
    32     7     1   ar
    33    18     8    1
    34    15    11   ar
    35    25    26    1
    36    17    19    1
    37    17    20    1
@<TRIPOS>MOLECULE
*****
 34 37 0 0 0
SMALL
GASTEIGER

@<TRIPOS>ATOM
      1 C          63.5659   86.6545   14.9919 C.ar    1  UNL1        0.0505
      2 C          63.2793   86.9916   16.4252 C.ar    1  UNL1        0.0170
      3 C          63.2846   88.4227   16.8747 C.ar    1  UNL1        0.0307
      4 C          63.5767   89.5167   15.8909 C.ar    1  UNL1        0.1401
      5 F          63.5820   90.9478   16.3404 F       1  UNL1       -0.2044
      6 C          63.8634   89.1797   14.4577 C.ar    1  UNL1        0.0523
      7 C          63.8580   87.7487   14.0082 C.ar    1  UNL1        0.0167
      8 C          64.1554   90.2738   13.4740 C.3     1  UNL1        0.2179
      9 C          62.9068   89.7049   12.8677 C.3     1  UNL1        0.0602
     10 C          64.0138   91.1703   12.2797 C.3     1  UNL1        0.1808
     11 N          65.0193   92.2557   12.0333 N.ar    1  UNL1       -0.2384
     12 N          65.1392   93.2856   10.9493 N.ar    1  UNL1       -0.1584
     13 C          66.3604   94.1110   11.2273 C.ar    1  UNL1        0.1704
     14 C          66.9953   93.5914   12.4830 C.ar    1  UNL1        0.0576
     15 C          66.1664   92.4447   12.9812 C.ar    1  UNL1        0.1615
     16 C          66.3080   91.5482   14.1754 C.2     1  UNL1        0.3305
     17 N          67.4551   91.7372   15.1233 N.pl3   1  UNL1       -0.2452
     18 N          65.3025   90.4628   14.4218 N.2     1  UNL1       -0.0666
     19 H          68.1151   92.4496   14.9616 H       1  UNL1        0.2885
     20 H          67.5480   91.1488   15.9071 H       1  UNL1        0.2885
     21 C          66.8592   95.2553   10.3955 C.1     1  UNL1        0.1216
     22 N          67.3580   96.3996    9.5638 N.1     1  UNL1       -0.1892
     23 C          62.8399   84.8349   13.2856 C.2     1  UNL1        0.2688
     24 O          62.1246   85.8772   12.4783 O.2     1  UNL1       -0.2681
     25 N          63.5606   85.2236   14.5424 N.am    1  UNL1       -0.2791
     26 H          64.0301   84.5394   15.0722 H       1  UNL1        0.1552
     27 C          62.8240   80.5418   11.9369 C.ar    1  UNL1        0.2449
     28 C          62.4062   80.8903   13.3347 C.ar    1  UNL1        0.1565
     29 N          62.4115   82.3214   13.7843 N.ar    1  UNL1       -0.2328
     30 C          62.8346   83.4038   12.8360 C.ar    1  UNL1        0.1541
     31 C          63.2524   83.0553   11.4381 C.ar    1  UNL1        0.1258
     32 N          63.2471   81.6243   10.9887 N.ar    1  UNL1       -0.2071
     33 C          62.8442   78.7843   10.0235 C.3     1  UNL1        0.2543
     34 O          62.8186   79.1107   11.4874 O.3     1  UNL1       -0.4551
@<TRIPOS>BOND
     1    33    34    1
     2    34    27    1
     3    27    28   ar
     4    28    29   ar
     5    29    30   ar
     6    30    23    1
     7    23    24    2
     8    23    25   am
     9    25     1    1
    10     1     2   ar
    11     2     3   ar
    12     3     4   ar
    13     4     5    1
    14     4     6   ar
    15     6     8    1
    16     8     9    1
    17     8    10    1
    18    10    11    1
    19    11    12   ar
    20    12    13   ar
    21    13    21    1
    22    21    22    3
    23    13    14   ar
    24    14    15   ar
    25    15    16    1
    26    16    17    1
    27    16    18    2
    28     6     7   ar
    29    30    31   ar
    30    31    32   ar
    31    32    27   ar
    32     7     1   ar
    33    18     8    1
    34    15    11   ar
    35    25    26    1
    36    17    19    1
    37    17    20    1
@<TRIPOS>MOLECULE
*****
 34 37 0 0 0
SMALL
GASTEIGER

@<TRIPOS>ATOM
      1 C          63.8032   87.6137   15.1154 C.ar    1  UNL1        0.0505
      2 C          63.1271   88.0233   16.3902 C.ar    1  UNL1        0.0170
      3 C          63.1759   89.4538   16.8390 C.ar    1  UNL1        0.0307
      4 C          63.9008   90.4747   16.0129 C.ar    1  UNL1        0.1401
      5 F          63.9496   91.9052   16.4617 F       1  UNL1       -0.2044
      6 C          64.5769   90.0651   14.7382 C.ar    1  UNL1        0.0523
      7 C          64.5281   88.6347   14.2894 C.ar    1  UNL1        0.0167
      8 C          65.3018   91.0861   13.9122 C.3     1  UNL1        0.2179
      9 C          66.1979   91.0396   15.1142 C.3     1  UNL1        0.0602
     10 C          66.3380   92.0909   13.5037 C.3     1  UNL1        0.1808
     11 N          66.2262   92.7876   12.1800 N.ar    1  UNL1       -0.2384
     12 N          67.0885   93.8170   11.5117 N.ar    1  UNL1       -0.1584
     13 C          66.4735   94.1452   10.1835 C.ar    1  UNL1        0.1704
     14 C          65.2312   93.3186   10.0310 C.ar    1  UNL1        0.0576
     15 C          65.0783   92.4795   11.2649 C.ar    1  UNL1        0.1615
     16 C          64.0422   91.4747   11.6734 C.2     1  UNL1        0.3305
     17 N          62.8943   91.1666   10.7583 N.pl3   1  UNL1       -0.2452
     18 N          64.1540   90.7780   12.9971 N.2     1  UNL1       -0.0666
     19 H          62.8209   91.6239    9.8895 H       1  UNL1        0.2885
     20 H          62.2143   90.5072   11.0264 H       1  UNL1        0.2885
     21 C          67.0072   95.1276    9.1834 C.1     1  UNL1        0.1216
     22 N          67.5408   96.1099    8.1833 N.1     1  UNL1       -0.1892
     23 C          63.2679   85.8458   13.2884 C.2     1  UNL1        0.2688
     24 O          62.8302   86.9387   12.3590 O.2     1  UNL1       -0.2681
     25 N          63.7544   86.1833   14.6666 N.am    1  UNL1       -0.2791
     26 H          64.0417   85.4660   15.2766 H       1  UNL1        0.1552
     27 C          63.1217   81.5544   11.9420 C.ar    1  UNL1        0.2449
     28 C          63.6016   82.6197   11.0013 C.ar    1  UNL1        0.1565
     29 N          63.6503   84.0502   11.4501 N.ar    1  UNL1       -0.2328
     30 C          63.2192   84.4153   12.8396 C.ar    1  UNL1        0.1541
     31 C          62.7393   83.3501   13.7804 C.ar    1  UNL1        0.1258
     32 N          62.6906   81.9197   13.3315 N.ar    1  UNL1       -0.2071
     33 C          62.8929   79.7997   10.0398 C.3     1  UNL1        0.2543
     34 O          63.0729   80.1240   11.4932 O.3     1  UNL1       -0.4551
@<TRIPOS>BOND
     1    33    34    1
     2    34    27    1
     3    27    28   ar
     4    28    29   ar
     5    29    30   ar
     6    30    23    1
     7    23    24    2
     8    23    25   am
     9    25     1    1
    10     1     2   ar
    11     2     3   ar
    12     3     4   ar
    13     4     5    1
    14     4     6   ar
    15     6     8    1
    16     8     9    1
    17     8    10    1
    18    10    11    1
    19    11    12   ar
    20    12    13   ar
    21    13    21    1
    22    21    22    3
    23    13    14   ar
    24    14    15   ar
    25    15    16    1
    26    16    17    1
    27    16    18    2
    28     6     7   ar
    29    30    31   ar
    30    31    32   ar
    31    32    27   ar
    32     7     1   ar
    33    18     8    1
    34    15    11   ar
    35    25    26    1
    36    17    19    1
    37    17    20    1
@<TRIPOS>MOLECULE
*****
 34 37 0 0 0
SMALL
GASTEIGER

@<TRIPOS>ATOM
      1 C          61.2710   87.3100   11.0000 C.ar    1  UNL1        0.0505
      2 C          59.9498   87.9208   10.6376 C.ar    1  UNL1        0.0170
      3 C          59.7638   89.4072   10.7163 C.ar    1  UNL1        0.0307
      4 C          60.8992   90.2827   11.1575 C.ar    1  UNL1        0.1401
      5 F          60.7132   91.7691   11.2362 F       1  UNL1       -0.2044
      6 C          62.2203   89.6719   11.5199 C.ar    1  UNL1        0.0523
      7 C          62.4063   88.1856   11.4412 C.ar    1  UNL1        0.0167
      8 C          63.3556   90.5475   11.9610 C.3     1  UNL1        0.2179
      9 C          63.3938   90.7967   10.4822 C.3     1  UNL1        0.0602
     10 C          64.5041   91.5097   11.8885 C.3     1  UNL1        0.1808
     11 N          65.2201   91.9186   13.1415 N.ar    1  UNL1       -0.2384
     12 N          66.3776   92.8424   13.3801 N.ar    1  UNL1       -0.1584
     13 C          66.6604   92.8601   14.8531 C.ar    1  UNL1        0.1704
     14 C          65.6778   91.9473   15.5248 C.ar    1  UNL1        0.0576
     15 C          64.7876   91.3654   14.4670 C.ar    1  UNL1        0.1615
     16 C          63.6391   90.4033   14.5394 C.2     1  UNL1        0.3305
     17 N          63.2066   89.8501   15.8649 N.pl3   1  UNL1       -0.2452
     18 N          62.9231   89.9944   13.2864 N.2     1  UNL1       -0.0666
     19 H          63.6766   90.1185   16.6873 H       1  UNL1        0.2885
     20 H          62.4528   89.2186   15.9125 H       1  UNL1        0.2885
     21 C          67.7369   93.6517   15.5347 C.1     1  UNL1        0.1216
     22 N          68.8134   94.4432   16.2163 N.1     1  UNL1       -0.1892
     23 C          62.3557   85.1274   11.8999 C.2     1  UNL1        0.2688
     24 O          63.0684   85.9174   12.9571 O.2     1  UNL1       -0.2681
     25 N          61.4570   85.8237   10.9214 N.am    1  UNL1       -0.2791
     26 H          60.9892   85.3051   10.2275 H       1  UNL1        0.1552
     27 C          62.9136   80.6684   11.6637 C.ar    1  UNL1        0.2449
     28 C          62.3015   81.2839   12.8870 C.ar    1  UNL1        0.1565
     29 N          62.1156   82.7703   12.9657 N.ar    1  UNL1       -0.2328
     30 C          62.5417   83.6410   11.8212 C.ar    1  UNL1        0.1541
     31 C          63.1538   83.0256   10.5978 C.ar    1  UNL1        0.1258
     32 N          63.3397   81.5393   10.5191 N.ar    1  UNL1       -0.2071
     33 C          62.7893   78.4538   10.3108 C.3     1  UNL1        0.2543
     34 O          63.0996   79.1820   11.5850 O.3     1  UNL1       -0.4551
@<TRIPOS>BOND
     1    33    34    1
     2    34    27    1
     3    27    28   ar
     4    28    29   ar
     5    29    30   ar
     6    30    23    1
     7    23    24    2
     8    23    25   am
     9    25     1    1
    10     1     2   ar
    11     2     3   ar
    12     3     4   ar
    13     4     5    1
    14     4     6   ar
    15     6     8    1
    16     8     9    1
    17     8    10    1
    18    10    11    1
    19    11    12   ar
    20    12    13   ar
    21    13    21    1
    22    21    22    3
    23    13    14   ar
    24    14    15   ar
    25    15    16    1
    26    16    17    1
    27    16    18    2
    28     6     7   ar
    29    30    31   ar
    30    31    32   ar
    31    32    27   ar
    32     7     1   ar
    33    18     8    1
    34    15    11   ar
    35    25    26    1
    36    17    19    1
    37    17    20    1
@<TRIPOS>MOLECULE
*****
 34 37 0 0 0
SMALL
GASTEIGER

@<TRIPOS>ATOM
      1 C          63.0598   90.2693   11.2144 C.ar    1  UNL1        0.0505
      2 C          62.0452   90.8556   10.2779 C.ar    1  UNL1        0.0170
      3 C          61.0639   89.9614    9.5798 C.ar    1  UNL1        0.0307
      4 C          61.0972   88.4808    9.8181 C.ar    1  UNL1        0.1401
      5 F          60.1159   87.5866    9.1199 F       1  UNL1       -0.2044
      6 C          62.1117   87.8945   10.7544 C.ar    1  UNL1        0.0523
      7 C          63.0930   88.7886   11.4526 C.ar    1  UNL1        0.0167
      8 C          62.1449   86.4138   10.9927 C.3     1  UNL1        0.2179
      9 C          61.5254   86.4441    9.6268 C.3     1  UNL1        0.0602
     10 C          61.9629   84.9437   10.7565 C.3     1  UNL1        0.1808
     11 N          62.3889   83.9576   11.8034 N.ar    1  UNL1       -0.2384
     12 N          62.3350   82.4594   11.8521 N.ar    1  UNL1       -0.1584
     13 C          62.9096   82.0173   13.1652 C.ar    1  UNL1        0.1704
     14 C          63.3187   83.2424   13.9281 C.ar    1  UNL1        0.0576
     15 C          62.9968   84.4415   13.0864 C.ar    1  UNL1        0.1615
     16 C          63.1787   85.9116   13.3226 C.2     1  UNL1        0.3305
     17 N          63.7867   86.3955   14.6056 N.pl3   1  UNL1       -0.2452
     18 N          62.7528   86.8977   12.2757 N.2     1  UNL1       -0.0666
     19 H          64.0662   85.7483   15.2928 H       1  UNL1        0.2885
     20 H          63.9061   87.3604   14.7606 H       1  UNL1        0.2885
     21 C          63.0505   80.5992   13.6333 C.1     1  UNL1        0.1216
     22 N          63.1914   79.1811   14.1015 N.1     1  UNL1       -0.1892
     23 C          64.5250   90.8158   13.2891 C.2     1  UNL1        0.2688
     24 O          64.0275   89.5739   13.9676 O.2     1  UNL1       -0.2681
     25 N          64.0411   91.1634   11.9125 N.am    1  UNL1       -0.2791
     26 H          64.3676   91.9785   11.4672 H       1  UNL1        0.1552
     27 C          67.4689   93.4984   15.3835 C.ar    1  UNL1        0.2449
     28 C          66.3749   92.8318   16.1637 C.ar    1  UNL1        0.1565
     29 N          65.3935   91.9376   15.4656 N.ar    1  UNL1       -0.2328
     30 C          65.5063   91.7100   13.9873 C.ar    1  UNL1        0.1541
     31 C          66.6004   92.3765   13.2070 C.ar    1  UNL1        0.1258
     32 N          67.5817   93.2707   13.9052 N.ar    1  UNL1       -0.2071
     33 C          69.9131   94.0614   16.0610 C.3     1  UNL1        0.2543
     34 O          68.4503   94.3926   16.0817 O.3     1  UNL1       -0.4551
@<TRIPOS>BOND
     1    33    34    1
     2    34    27    1
     3    27    28   ar
     4    28    29   ar
     5    29    30   ar
     6    30    23    1
     7    23    24    2
     8    23    25   am
     9    25     1    1
    10     1     2   ar
    11     2     3   ar
    12     3     4   ar
    13     4     5    1
    14     4     6   ar
    15     6     8    1
    16     8     9    1
    17     8    10    1
    18    10    11    1
    19    11    12   ar
    20    12    13   ar
    21    13    21    1
    22    21    22    3
    23    13    14   ar
    24    14    15   ar
    25    15    16    1
    26    16    17    1
    27    16    18    2
    28     6     7   ar
    29    30    31   ar
    30    31    32   ar
    31    32    27   ar
    32     7     1   ar
    33    18     8    1
    34    15    11   ar
    35    25    26    1
    36    17    19    1
    37    17    20    1
@<TRIPOS>MOLECULE
*****
 34 37 0 0 0
SMALL
GASTEIGER

@<TRIPOS>ATOM
      1 C          62.1235   87.1377   11.1440 C.ar    1  UNL1        0.0505
      2 C          61.1276   87.9356   10.3556 C.ar    1  UNL1        0.0170
      3 C          61.0852   89.4287   10.4932 C.ar    1  UNL1        0.0307
      4 C          62.0387   90.1238   11.4194 C.ar    1  UNL1        0.1401
      5 F          61.9963   91.6169   11.5571 F       1  UNL1       -0.2044
      6 C          63.0345   89.3259   12.2078 C.ar    1  UNL1        0.0523
      7 C          63.0769   87.8329   12.0702 C.ar    1  UNL1        0.0167
      8 C          63.9879   90.0212   13.1340 C.3     1  UNL1        0.2179
      9 C          63.5273   88.9051   14.0241 C.3     1  UNL1        0.0602
     10 C          64.7813   90.3287   14.3693 C.3     1  UNL1        0.1808
     11 N          65.7043   91.5109   14.3928 N.ar    1  UNL1       -0.2384
     12 N          66.6067   92.0587   15.4585 N.ar    1  UNL1       -0.1584
     13 C          67.2939   93.2718   14.9054 C.ar    1  UNL1        0.1704
     14 C          66.8162   93.4739   13.4979 C.ar    1  UNL1        0.0576
     15 C          65.8338   92.3856   13.1811 C.ar    1  UNL1        0.1615
     16 C          65.0403   92.0780   11.9458 C.2     1  UNL1        0.3305
     17 N          65.1698   92.9526   10.7341 N.pl3   1  UNL1       -0.2452
     18 N          64.1174   90.8958   11.9223 N.2     1  UNL1       -0.0666
     19 H          65.7756   93.7285   10.7496 H       1  UNL1        0.2885
     20 H          64.6491   92.7507    9.9234 H       1  UNL1        0.2885
     21 C          68.2848   94.1320   15.6321 C.1     1  UNL1        0.1216
     22 N          69.2758   94.9921   16.3589 N.1     1  UNL1       -0.1892
     23 C          62.6373   84.7989   12.1521 C.2     1  UNL1        0.2688
     24 O          63.0662   85.4462   13.4354 O.2     1  UNL1       -0.2681
     25 N          62.1659   85.6446   11.0064 N.am    1  UNL1       -0.2791
     26 H          61.8844   85.2198   10.1641 H       1  UNL1        0.1552
     27 C          62.7646   80.3197   11.7391 C.ar    1  UNL1        0.2449
     28 C          62.2901   80.9417   13.0189 C.ar    1  UNL1        0.1565
     29 N          62.2477   82.4348   13.1566 N.ar    1  UNL1       -0.2328
     30 C          62.6797   83.3058   12.0144 C.ar    1  UNL1        0.1541
     31 C          63.1542   82.6838   10.7345 C.ar    1  UNL1        0.1258
     32 N          63.1966   81.1908   10.5969 N.ar    1  UNL1       -0.2071
     33 C          62.8245   78.1993   10.2390 C.3     1  UNL1        0.2543
     34 O          62.8070   78.8266   11.6014 O.3     1  UNL1       -0.4551
@<TRIPOS>BOND
     1    33    34    1
     2    34    27    1
     3    27    28   ar
     4    28    29   ar
     5    29    30   ar
     6    30    23    1
     7    23    24    2
     8    23    25   am
     9    25     1    1
    10     1     2   ar
    11     2     3   ar
    12     3     4   ar
    13     4     5    1
    14     4     6   ar
    15     6     8    1
    16     8     9    1
    17     8    10    1
    18    10    11    1
    19    11    12   ar
    20    12    13   ar
    21    13    21    1
    22    21    22    3
    23    13    14   ar
    24    14    15   ar
    25    15    16    1
    26    16    17    1
    27    16    18    2
    28     6     7   ar
    29    30    31   ar
    30    31    32   ar
    31    32    27   ar
    32     7     1   ar
    33    18     8    1
    34    15    11   ar
    35    25    26    1
    36    17    19    1
    37    17    20    1
