@<TRIPOS>MOLECULE
*****
 35 39 0 0 0
SMALL
GASTEIGER

@<TRIPOS>ATOM
      1 N          63.0088   90.7044   12.3253 N.3     1  UNL1       -0.2679
      2 C          64.2424   91.5304   12.1108 C.3     1  UNL1        0.0978
      3 C          64.6653   91.8994   10.7198 C.3     1  UNL1        0.0224
      4 C          65.8990   92.7255   10.5053 C.3     1  UNL1        0.0065
      5 C          66.7095   93.1824   11.6818 C.3     1  UNL1        0.0277
      6 C          66.2866   92.8133   13.0728 C.ar    1  UNL1       -0.0073
      7 C          67.0972   93.2702   14.2492 C.ar    1  UNL1       -0.0015
      8 C          66.6742   92.9011   15.6402 C.ar    1  UNL1        0.0203
      9 C          65.4406   92.0752   15.8548 C.ar    1  UNL1        0.0985
     10 N          64.6301   91.6183   14.6783 N.ar    1  UNL1       -0.2471
     11 C          65.0530   91.9873   13.2873 C.ar    1  UNL1        0.0695
     12 C          61.8201   90.8847   11.4283 C.3     1  UNL1        0.0886
     13 C          61.1371   85.3356    7.4294 C.ar    1  UNL1       -0.0003
     14 C          62.4397   85.2510    8.1684 C.ar    1  UNL1       -0.0003
     15 C          62.8368   86.3439    9.1159 C.ar    1  UNL1       -0.0045
     16 C          61.9313   87.5214    9.3246 C.ar    1  UNL1       -0.0234
     17 C          60.6288   87.6060    8.5856 C.ar    1  UNL1       -0.0103
     18 C          60.2317   86.5131    7.6380 C.ar    1  UNL1       -0.0032
     19 C          59.7232   88.7836    8.7942 C.3     1  UNL1        0.0953
     20 N          60.1203   89.8764    9.7418 N.3     1  UNL1       -0.2934
     21 C          61.4230   89.7918   10.4807 C.3     1  UNL1        0.0748
     22 C          62.3284   88.6143   10.2721 C.3     1  UNL1        0.0432
     23 H          59.3854   89.9366   10.4465 H       1  UNL1        0.1236
     24 C          62.9639   89.6981   13.4368 C.3     1  UNL1        0.0725
     25 C          63.8638   88.4987   13.3994 C.3     1  UNL1        0.0188
     26 C          64.3719   87.9021   14.6785 C.3     1  UNL1        0.0185
     27 C          64.4803   86.4127   14.8203 C.3     1  UNL1        0.0686
     28 N          63.2398   85.5792   14.9470 N.3     1  UNL1       -0.2985
     29 H          62.4473   86.2144   14.8533 H       1  UNL1        0.1232
     30 C          62.9990   84.4434   13.9972 C.3     1  UNL1        0.0540
     31 C          63.1324   84.6609   12.5191 C.3     1  UNL1        0.0157
     32 C          62.8916   83.5251   11.5692 C.3     1  UNL1        0.0014
     33 C          62.5175   82.1720   12.0976 C.3     1  UNL1        0.0001
     34 C          62.3841   81.9546   13.5758 C.3     1  UNL1        0.0014
     35 C          62.6249   83.0903   14.5256 C.3     1  UNL1        0.0157
@<TRIPOS>BOND
     1    13    14   ar
     2    14    15   ar
     3    15    16   ar
     4    16    17   ar
     5    17    18   ar
     6    17    19    1
     7    19    20    1
     8    20    21    1
     9    21    12    1
    10    12     1    1
    11     1    24    1
    12    24    25    1
    13    25    26    1
    14    26    27    1
    15    27    28    1
    16    28    30    1
    17    30    31    1
    18    31    32    1
    19    32    33    1
    20    33    34    1
    21    34    35    1
    22     2     1    1
    23     2     3    1
    24     3     4    1
    25     4     5    1
    26     5     6    1
    27     6     7   ar
    28     7     8   ar
    29     8     9   ar
    30     9    10   ar
    31    10    11   ar
    32    21    22    1
    33    18    13   ar
    34    35    30    1
    35    11     2    1
    36    22    16    1
    37    11     6   ar
    38    20    23    1
    39    28    29    1
@<TRIPOS>MOLECULE
*****
 35 39 0 0 0
SMALL
GASTEIGER

@<TRIPOS>ATOM
      1 N          63.3973   88.8449   13.5446 N.3     1  UNL1       -0.2679
      2 C          62.9325   89.1653   12.1550 C.3     1  UNL1        0.0978
      3 C          63.0620   90.5623   11.6242 C.3     1  UNL1        0.0224
      4 C          62.5972   90.8827   10.2345 C.3     1  UNL1        0.0065
      5 C          62.0029   89.8062    9.3755 C.3     1  UNL1        0.0277
      6 C          61.8733   88.4092    9.9063 C.ar    1  UNL1       -0.0073
      7 C          61.2790   87.3327    9.0474 C.ar    1  UNL1       -0.0015
      8 C          61.1495   85.9357    9.5781 C.ar    1  UNL1        0.0203
      9 C          61.6143   85.6153   10.9678 C.ar    1  UNL1        0.0985
     10 N          62.2086   86.6918   11.8267 N.ar    1  UNL1       -0.2471
     11 C          62.3381   88.0888   11.2959 C.ar    1  UNL1        0.0695
     12 C          63.1894   89.8351   14.6521 C.3     1  UNL1        0.0886
     13 C          68.9596   93.4623   15.5450 C.ar    1  UNL1       -0.0003
     14 C          69.1322   92.5466   14.3696 C.ar    1  UNL1       -0.0003
     15 C          68.0127   91.6380   13.9559 C.ar    1  UNL1       -0.0045
     16 C          66.7206   91.6451   14.7177 C.ar    1  UNL1       -0.0234
     17 C          66.5480   92.5608   15.8931 C.ar    1  UNL1       -0.0103
     18 C          67.6675   93.4694   16.3068 C.ar    1  UNL1       -0.0032
     19 C          65.2558   92.5680   16.6549 C.3     1  UNL1        0.0953
     20 N          64.1362   91.6594   16.2412 N.3     1  UNL1       -0.2934
     21 C          64.3089   90.7437   15.0657 C.3     1  UNL1        0.0748
     22 C          65.6010   90.7365   14.3040 C.3     1  UNL1        0.0432
     23 H          63.3344   92.2552   16.0351 H       1  UNL1        0.1236
     24 C          64.0700   87.5343   13.8270 C.3     1  UNL1        0.0725
     25 C          64.1866   87.0397   15.2383 C.3     1  UNL1        0.0188
     26 C          64.3764   85.5762   15.5069 C.3     1  UNL1        0.0185
     27 C          63.2411   84.6203   15.2890 C.3     1  UNL1        0.0686
     28 N          63.5224   83.1903   14.9339 N.3     1  UNL1       -0.2985
     29 H          62.8029   82.6273   15.3875 H       1  UNL1        0.1232
     30 C          63.5594   82.7683   13.4950 C.3     1  UNL1        0.0540
     31 C          62.8154   81.5429   13.0535 C.3     1  UNL1        0.0157
     32 C          62.8525   81.1208   11.6146 C.3     1  UNL1        0.0014
     33 C          63.6335   81.9240   10.6172 C.3     1  UNL1        0.0001
     34 C          64.3776   83.1494   11.0588 C.3     1  UNL1        0.0014
     35 C          64.3405   83.5715   12.4977 C.3     1  UNL1        0.0157
@<TRIPOS>BOND
     1    13    14   ar
     2    14    15   ar
     3    15    16   ar
     4    16    17   ar
     5    17    18   ar
     6    17    19    1
     7    19    20    1
     8    20    21    1
     9    21    12    1
    10    12     1    1
    11     1    24    1
    12    24    25    1
    13    25    26    1
    14    26    27    1
    15    27    28    1
    16    28    30    1
    17    30    31    1
    18    31    32    1
    19    32    33    1
    20    33    34    1
    21    34    35    1
    22     2     1    1
    23     2     3    1
    24     3     4    1
    25     4     5    1
    26     5     6    1
    27     6     7   ar
    28     7     8   ar
    29     8     9   ar
    30     9    10   ar
    31    10    11   ar
    32    21    22    1
    33    18    13   ar
    34    35    30    1
    35    11     2    1
    36    22    16    1
    37    11     6   ar
    38    20    23    1
    39    28    29    1
@<TRIPOS>MOLECULE
*****
 35 39 0 0 0
SMALL
GASTEIGER

@<TRIPOS>ATOM
      1 N          63.1834   90.2905   13.3191 N.3     1  UNL1       -0.2679
      2 C          64.1908   91.2559   12.7686 C.3     1  UNL1        0.0978
      3 C          64.2471   91.5212   11.2933 C.3     1  UNL1        0.0224
      4 C          65.2545   92.4866   10.7428 C.3     1  UNL1        0.0065
      5 C          66.2056   93.1868   11.6675 C.3     1  UNL1        0.0277
      6 C          66.1493   92.9215   13.1428 C.ar    1  UNL1       -0.0073
      7 C          67.1004   93.6216   14.0675 C.ar    1  UNL1       -0.0015
      8 C          67.0441   93.3563   15.5428 C.ar    1  UNL1        0.0203
      9 C          66.0368   92.3910   16.0934 C.ar    1  UNL1        0.0985
     10 N          65.0857   91.6908   15.1686 N.ar    1  UNL1       -0.2471
     11 C          65.1420   91.9561   13.6933 C.ar    1  UNL1        0.0695
     12 C          61.8517   90.1316   12.6472 C.3     1  UNL1        0.0886
     13 C          60.0510   85.9865    7.4678 C.ar    1  UNL1       -0.0003
     14 C          59.2603   87.2579    7.3769 C.ar    1  UNL1       -0.0003
     15 C          59.4623   88.3411    8.3946 C.ar    1  UNL1       -0.0045
     16 C          60.4550   88.1531    9.5032 C.ar    1  UNL1       -0.0234
     17 C          61.2457   86.8817    9.5941 C.ar    1  UNL1       -0.0103
     18 C          61.0438   85.7984    8.5764 C.ar    1  UNL1       -0.0032
     19 C          62.2385   86.6936   10.7028 C.3     1  UNL1        0.0953
     20 N          62.4405   87.7769   11.7205 N.3     1  UNL1       -0.2934
     21 C          61.6497   89.0483   11.6295 C.3     1  UNL1        0.0748
     22 C          60.6570   89.2364   10.5209 C.3     1  UNL1        0.0432
     23 H          63.4254   88.0391   11.6798 H       1  UNL1        0.1236
     24 C          63.5076   89.4841   14.5416 C.3     1  UNL1        0.0725
     25 C          64.4715   88.3385   14.4504 C.3     1  UNL1        0.0188
     26 C          64.1731   87.0492   15.1566 C.3     1  UNL1        0.0185
     27 C          64.1884   85.7564   14.3959 C.3     1  UNL1        0.0686
     28 N          62.9393   85.2659   13.7255 N.3     1  UNL1       -0.2985
     29 H          62.8716   85.7567   12.8339 H       1  UNL1        0.1232
     30 C          62.7711   83.8051   13.4296 C.3     1  UNL1        0.0540
     31 C          62.3220   82.8677   14.5111 C.3     1  UNL1        0.0157
     32 C          62.1537   81.4068   14.2152 C.3     1  UNL1        0.0014
     33 C          62.4346   80.8833   12.8378 C.3     1  UNL1        0.0001
     34 C          62.8837   81.8208   11.7563 C.3     1  UNL1        0.0014
     35 C          63.0520   83.2816   12.0523 C.3     1  UNL1        0.0157
@<TRIPOS>BOND
     1    13    14   ar
     2    14    15   ar
     3    15    16   ar
     4    16    17   ar
     5    17    18   ar
     6    17    19    1
     7    19    20    1
     8    20    21    1
     9    21    12    1
    10    12     1    1
    11     1    24    1
    12    24    25    1
    13    25    26    1
    14    26    27    1
    15    27    28    1
    16    28    30    1
    17    30    31    1
    18    31    32    1
    19    32    33    1
    20    33    34    1
    21    34    35    1
    22     2     1    1
    23     2     3    1
    24     3     4    1
    25     4     5    1
    26     5     6    1
    27     6     7   ar
    28     7     8   ar
    29     8     9   ar
    30     9    10   ar
    31    10    11   ar
    32    21    22    1
    33    18    13   ar
    34    35    30    1
    35    11     2    1
    36    22    16    1
    37    11     6   ar
    38    20    23    1
    39    28    29    1
@<TRIPOS>MOLECULE
*****
 35 39 0 0 0
SMALL
GASTEIGER

@<TRIPOS>ATOM
      1 N          63.7775   89.9992   13.6233 N.3     1  UNL1       -0.2679
      2 C          64.7237   91.1257   13.9159 C.3     1  UNL1        0.0978
      3 C          65.2433   91.3260   15.3087 C.3     1  UNL1        0.0224
      4 C          66.1896   92.4526   15.6013 C.3     1  UNL1        0.0065
      5 C          66.6161   93.3788   14.5012 C.3     1  UNL1        0.0277
      6 C          66.0964   93.1784   13.1084 C.ar    1  UNL1       -0.0073
      7 C          66.5228   94.1046   12.0083 C.ar    1  UNL1       -0.0015
      8 C          66.0031   93.9042   10.6156 C.ar    1  UNL1        0.0203
      9 C          65.0570   92.7777   10.3229 C.ar    1  UNL1        0.0985
     10 N          64.6305   91.8516   11.4230 N.ar    1  UNL1       -0.2471
     11 C          65.1502   92.0519   12.8158 C.ar    1  UNL1        0.0695
     12 C          62.3508   90.2920   13.2643 C.3     1  UNL1        0.0886
     13 C          60.4813   86.6053    7.7722 C.ar    1  UNL1       -0.0003
     14 C          61.6105   85.9076    8.4708 C.ar    1  UNL1       -0.0003
     15 C          62.2102   86.5054    9.7089 C.ar    1  UNL1       -0.0045
     16 C          61.6808   87.8009   10.2485 C.ar    1  UNL1       -0.0234
     17 C          60.5516   88.4987    9.5499 C.ar    1  UNL1       -0.0103
     18 C          59.9519   87.9009    8.3118 C.ar    1  UNL1       -0.0032
     19 C          60.0221   89.7943   10.0895 C.3     1  UNL1        0.0953
     20 N          60.6218   90.3921   11.3276 N.3     1  UNL1       -0.2934
     21 C          61.7510   89.6943   12.0262 C.3     1  UNL1        0.0748
     22 C          62.2805   88.3987   11.4866 C.3     1  UNL1        0.0432
     23 H          59.8662   90.4822   12.0068 H       1  UNL1        0.1236
     24 C          64.2579   88.5797   13.6896 C.3     1  UNL1        0.0725
     25 C          64.2577   87.8482   14.9991 C.3     1  UNL1        0.0188
     26 C          64.5906   86.3863   15.0416 C.3     1  UNL1        0.0185
     27 C          63.7023   85.4362   15.7888 C.3     1  UNL1        0.0686
     28 N          62.4523   84.9142   15.1447 N.3     1  UNL1       -0.2985
     29 H          61.9685   85.7187   14.7457 H       1  UNL1        0.1232
     30 C          62.5422   83.8817   14.0603 C.3     1  UNL1        0.0540
     31 C          62.3709   82.4289   14.3921 C.3     1  UNL1        0.0157
     32 C          62.4609   81.3963   13.3077 C.3     1  UNL1        0.0014
     33 C          62.7222   81.8166   11.8917 C.3     1  UNL1        0.0001
     34 C          62.8935   83.2694   11.5600 C.3     1  UNL1        0.0014
     35 C          62.8036   84.3019   12.6443 C.3     1  UNL1        0.0157
@<TRIPOS>BOND
     1    13    14   ar
     2    14    15   ar
     3    15    16   ar
     4    16    17   ar
     5    17    18   ar
     6    17    19    1
     7    19    20    1
     8    20    21    1
     9    21    12    1
    10    12     1    1
    11     1    24    1
    12    24    25    1
    13    25    26    1
    14    26    27    1
    15    27    28    1
    16    28    30    1
    17    30    31    1
    18    31    32    1
    19    32    33    1
    20    33    34    1
    21    34    35    1
    22     2     1    1
    23     2     3    1
    24     3     4    1
    25     4     5    1
    26     5     6    1
    27     6     7   ar
    28     7     8   ar
    29     8     9   ar
    30     9    10   ar
    31    10    11   ar
    32    21    22    1
    33    18    13   ar
    34    35    30    1
    35    11     2    1
    36    22    16    1
    37    11     6   ar
    38    20    23    1
    39    28    29    1
@<TRIPOS>MOLECULE
*****
 35 39 0 0 0
SMALL
GASTEIGER

@<TRIPOS>ATOM
      1 N          63.1532   89.0096   13.0346 N.3     1  UNL1       -0.2679
      2 C          63.5815   87.6393   13.4688 C.3     1  UNL1        0.0978
      3 C          64.3943   87.4681   14.7179 C.3     1  UNL1        0.0224
      4 C          64.8226   86.0977   15.1521 C.3     1  UNL1        0.0065
      5 C          64.4382   84.8984   14.3372 C.3     1  UNL1        0.0277
      6 C          63.6254   85.0696   13.0882 C.ar    1  UNL1       -0.0073
      7 C          63.2410   83.8704   12.2733 C.ar    1  UNL1       -0.0015
      8 C          62.4282   84.0415   11.0243 C.ar    1  UNL1        0.0203
      9 C          61.9999   85.4119   10.5901 C.ar    1  UNL1        0.0985
     10 N          62.3844   86.6111   11.4049 N.ar    1  UNL1       -0.2471
     11 C          63.1971   86.4399   12.6540 C.ar    1  UNL1        0.0695
     12 C          62.9092   90.0787   14.0582 C.3     1  UNL1        0.0886
     13 C          68.8223   93.2391   15.5738 C.ar    1  UNL1       -0.0003
     14 C          68.9669   92.5309   14.2595 C.ar    1  UNL1       -0.0003
     15 C          67.8132   91.7572   13.6935 C.ar    1  UNL1       -0.0045
     16 C          66.5149   91.6917   14.4418 C.ar    1  UNL1       -0.0234
     17 C          66.3703   92.3999   15.7562 C.ar    1  UNL1       -0.0103
     18 C          67.5240   93.1736   16.3221 C.ar    1  UNL1       -0.0032
     19 C          65.0719   92.3344   16.5046 C.3     1  UNL1        0.0953
     20 N          63.9182   91.5607   15.9386 N.3     1  UNL1       -0.2934
     21 C          64.0629   90.8524   14.6242 C.3     1  UNL1        0.0748
     22 C          65.3612   90.9179   13.8759 C.3     1  UNL1        0.0432
     23 H          63.1452   92.2180   15.8353 H       1  UNL1        0.1236
     24 C          62.9689   89.3110   11.5768 C.3     1  UNL1        0.0725
     25 C          62.6810   90.7142   11.1316 C.3     1  UNL1        0.0188
     26 C          63.7149   91.4850   10.3654 C.3     1  UNL1        0.0185
     27 C          64.6119   92.4518   11.0801 C.3     1  UNL1        0.0686
     28 N          66.0051   92.6930   10.5793 N.3     1  UNL1       -0.2985
     29 H          66.1255   92.1096    9.7514 H       1  UNL1        0.1232
     30 C          66.4360   94.0785   10.1991 C.3     1  UNL1        0.0540
     31 C          67.1200   94.3172    8.8856 C.3     1  UNL1        0.0157
     32 C          67.5509   95.7028    8.5053 C.3     1  UNL1        0.0014
     33 C          67.2978   96.8496    9.4385 C.3     1  UNL1        0.0001
     34 C          66.6138   96.6108   10.7520 C.3     1  UNL1        0.0014
     35 C          66.1829   95.2253   11.1322 C.3     1  UNL1        0.0157
@<TRIPOS>BOND
     1    13    14   ar
     2    14    15   ar
     3    15    16   ar
     4    16    17   ar
     5    17    18   ar
     6    17    19    1
     7    19    20    1
     8    20    21    1
     9    21    12    1
    10    12     1    1
    11     1    24    1
    12    24    25    1
    13    25    26    1
    14    26    27    1
    15    27    28    1
    16    28    30    1
    17    30    31    1
    18    31    32    1
    19    32    33    1
    20    33    34    1
    21    34    35    1
    22     2     1    1
    23     2     3    1
    24     3     4    1
    25     4     5    1
    26     5     6    1
    27     6     7   ar
    28     7     8   ar
    29     8     9   ar
    30     9    10   ar
    31    10    11   ar
    32    21    22    1
    33    18    13   ar
    34    35    30    1
    35    11     2    1
    36    22    16    1
    37    11     6   ar
    38    20    23    1
    39    28    29    1
@<TRIPOS>MOLECULE
*****
 35 39 0 0 0
SMALL
GASTEIGER

@<TRIPOS>ATOM
      1 N          63.9707   87.8398   14.3330 N.3     1  UNL1       -0.2679
      2 C          63.6103   88.6635   13.1325 C.3     1  UNL1        0.0978
      3 C          64.0417   90.0978   13.0500 C.3     1  UNL1        0.0224
      4 C          63.6812   90.9215   11.8493 C.3     1  UNL1        0.0065
      5 C          62.8893   90.3110   10.7312 C.3     1  UNL1        0.0277
      6 C          62.4579   88.8768   10.8137 C.ar    1  UNL1       -0.0073
      7 C          61.6661   88.2663    9.6956 C.ar    1  UNL1       -0.0015
      8 C          61.2347   86.8320    9.7780 C.ar    1  UNL1        0.0203
      9 C          61.5952   86.0083   10.9786 C.ar    1  UNL1        0.0985
     10 N          62.3870   86.6188   12.0967 N.ar    1  UNL1       -0.2471
     11 C          62.8184   88.0530   12.0143 C.ar    1  UNL1        0.0695
     12 C          64.6827   86.5310   14.1584 C.3     1  UNL1        0.0886
     13 C          61.8864   80.3007   13.3747 C.ar    1  UNL1       -0.0003
     14 C          62.9434   80.4996   12.3291 C.ar    1  UNL1       -0.0003
     15 C          63.7140   81.7854   12.2768 C.ar    1  UNL1       -0.0045
     16 C          63.4277   82.8724   13.2700 C.ar    1  UNL1       -0.0234
     17 C          62.3708   82.6735   14.3155 C.ar    1  UNL1       -0.0103
     18 C          61.6001   81.3877   14.3679 C.ar    1  UNL1       -0.0032
     19 C          62.0844   83.7605   15.3088 C.3     1  UNL1        0.0953
     20 N          62.8551   85.0464   15.2564 N.3     1  UNL1       -0.2934
     21 C          63.9121   85.2452   14.2108 C.3     1  UNL1        0.0748
     22 C          64.1984   84.1582   13.2176 C.3     1  UNL1        0.0432
     23 H          63.3128   85.1524   16.1617 H       1  UNL1        0.1236
     24 C          63.6193   88.3246   15.7083 C.3     1  UNL1        0.0725
     25 C          62.9887   89.6735   15.8896 C.3     1  UNL1        0.0188
     26 C          63.6468   90.6974   16.7663 C.3     1  UNL1        0.0185
     27 C          63.9793   92.0530   16.2167 C.3     1  UNL1        0.0686
     28 N          65.2410   92.7450   16.6399 N.3     1  UNL1       -0.2985
     29 H          65.4673   92.4001   17.5728 H       1  UNL1        0.1232
     30 C          66.4853   92.6073   15.8136 C.3     1  UNL1        0.0540
     31 C          66.4152   91.9860   14.4502 C.3     1  UNL1        0.0157
     32 C          67.6595   91.8483   13.6238 C.3     1  UNL1        0.0014
     33 C          68.9739   92.3319   14.1610 C.3     1  UNL1        0.0001
     34 C          69.0439   92.9533   15.5245 C.3     1  UNL1        0.0014
     35 C          67.7996   93.0910   16.3508 C.3     1  UNL1        0.0157
@<TRIPOS>BOND
     1    13    14   ar
     2    14    15   ar
     3    15    16   ar
     4    16    17   ar
     5    17    18   ar
     6    17    19    1
     7    19    20    1
     8    20    21    1
     9    21    12    1
    10    12     1    1
    11     1    24    1
    12    24    25    1
    13    25    26    1
    14    26    27    1
    15    27    28    1
    16    28    30    1
    17    30    31    1
    18    31    32    1
    19    32    33    1
    20    33    34    1
    21    34    35    1
    22     2     1    1
    23     2     3    1
    24     3     4    1
    25     4     5    1
    26     5     6    1
    27     6     7   ar
    28     7     8   ar
    29     8     9   ar
    30     9    10   ar
    31    10    11   ar
    32    21    22    1
    33    18    13   ar
    34    35    30    1
    35    11     2    1
    36    22    16    1
    37    11     6   ar
    38    20    23    1
    39    28    29    1
@<TRIPOS>MOLECULE
*****
 35 39 0 0 0
SMALL
GASTEIGER

@<TRIPOS>ATOM
      1 N          63.4340   90.4167   11.9348 N.3     1  UNL1       -0.2679
      2 C          64.4327   91.5337   11.8630 C.3     1  UNL1        0.0978
      3 C          64.7520   92.1705   10.5430 C.3     1  UNL1        0.0224
      4 C          65.7507   93.2875   10.4712 C.3     1  UNL1        0.0065
      5 C          66.4299   93.7676   11.7194 C.3     1  UNL1        0.0277
      6 C          66.1106   93.1307   13.0394 C.ar    1  UNL1       -0.0073
      7 C          66.7898   93.6108   14.2877 C.ar    1  UNL1       -0.0015
      8 C          66.4705   92.9739   15.6077 C.ar    1  UNL1        0.0203
      9 C          65.4719   91.8570   15.6795 C.ar    1  UNL1        0.0985
     10 N          64.7926   91.3769   14.4313 N.ar    1  UNL1       -0.2471
     11 C          65.1120   92.0138   13.1112 C.ar    1  UNL1        0.0695
     12 C          63.1083   89.7856   13.2561 C.3     1  UNL1        0.0886
     13 C          64.1242   82.9886   13.3917 C.ar    1  UNL1       -0.0003
     14 C          63.2575   83.3322   12.2167 C.ar    1  UNL1       -0.0003
     15 C          62.8810   84.7603   11.9546 C.ar    1  UNL1       -0.0045
     16 C          63.3712   85.8448   12.8675 C.ar    1  UNL1       -0.0234
     17 C          64.2379   85.5013   14.0425 C.ar    1  UNL1       -0.0103
     18 C          64.6144   84.0732   14.3046 C.ar    1  UNL1       -0.0032
     19 C          64.7281   86.5859   14.9555 C.3     1  UNL1        0.0953
     20 N          64.3516   88.0140   14.6933 N.3     1  UNL1       -0.2934
     21 C          63.4848   88.3575   13.5182 C.3     1  UNL1        0.0748
     22 C          62.9947   87.2730   12.6053 C.3     1  UNL1        0.0432
     23 H          65.2228   88.5318   14.5780 H       1  UNL1        0.1236
     24 C          62.7611   89.9308   10.6853 C.3     1  UNL1        0.0725
     25 C          61.5060   90.5953   10.2025 C.3     1  UNL1        0.0188
     26 C          60.2310   89.8109   10.1075 C.3     1  UNL1        0.0185
     27 C          60.2260   88.3458   10.4292 C.3     1  UNL1        0.0686
     28 N          59.7302   87.3571    9.4159 N.3     1  UNL1       -0.2985
     29 H          59.2009   87.8862    8.7228 H       1  UNL1        0.1232
     30 C          60.7059   86.5062    8.6585 C.3     1  UNL1        0.0540
     31 C          62.1303   86.4082    9.1183 C.3     1  UNL1        0.0157
     32 C          63.1061   85.5572    8.3609 C.3     1  UNL1        0.0014
     33 C          62.6575   84.8042    7.1436 C.3     1  UNL1        0.0001
     34 C          61.2330   84.9022    6.6838 C.3     1  UNL1        0.0014
     35 C          60.2573   85.7532    7.4412 C.3     1  UNL1        0.0157
@<TRIPOS>BOND
     1    13    14   ar
     2    14    15   ar
     3    15    16   ar
     4    16    17   ar
     5    17    18   ar
     6    17    19    1
     7    19    20    1
     8    20    21    1
     9    21    12    1
    10    12     1    1
    11     1    24    1
    12    24    25    1
    13    25    26    1
    14    26    27    1
    15    27    28    1
    16    28    30    1
    17    30    31    1
    18    31    32    1
    19    32    33    1
    20    33    34    1
    21    34    35    1
    22     2     1    1
    23     2     3    1
    24     3     4    1
    25     4     5    1
    26     5     6    1
    27     6     7   ar
    28     7     8   ar
    29     8     9   ar
    30     9    10   ar
    31    10    11   ar
    32    21    22    1
    33    18    13   ar
    34    35    30    1
    35    11     2    1
    36    22    16    1
    37    11     6   ar
    38    20    23    1
    39    28    29    1
@<TRIPOS>MOLECULE
*****
 35 39 0 0 0
SMALL
GASTEIGER

@<TRIPOS>ATOM
      1 N          63.3908   88.2029   13.1623 N.3     1  UNL1       -0.2679
      2 C          62.7089   87.4211   12.0790 C.3     1  UNL1        0.0978
      3 C          62.8846   85.9333   12.0037 C.3     1  UNL1        0.0224
      4 C          62.2026   85.1515   10.9203 C.3     1  UNL1        0.0065
      5 C          61.3450   85.8574    9.9122 C.3     1  UNL1        0.0277
      6 C          61.1693   87.3452    9.9875 C.ar    1  UNL1       -0.0073
      7 C          60.3118   88.0511    8.9795 C.ar    1  UNL1       -0.0015
      8 C          60.1361   89.5389    9.0548 C.ar    1  UNL1        0.0203
      9 C          60.8181   90.3207   10.1381 C.ar    1  UNL1        0.0985
     10 N          61.6756   89.6148   11.1462 N.ar    1  UNL1       -0.2471
     11 C          61.8513   88.1270   11.0709 C.ar    1  UNL1        0.0695
     12 C          63.1822   89.6850   13.2625 C.3     1  UNL1        0.0886
     13 C          68.4149   93.2999   15.8703 C.ar    1  UNL1       -0.0003
     14 C          68.8337   92.7069   14.5578 C.ar    1  UNL1       -0.0003
     15 C          67.8709   91.8653   13.7737 C.ar    1  UNL1       -0.0045
     16 C          66.4893   91.6167   14.3022 C.ar    1  UNL1       -0.0234
     17 C          66.0705   92.2098   15.6147 C.ar    1  UNL1       -0.0103
     18 C          67.0333   93.0514   16.3988 C.ar    1  UNL1       -0.0032
     19 C          64.6888   91.9612   16.1433 C.3     1  UNL1        0.0953
     20 N          63.7260   91.1196   15.3592 N.3     1  UNL1       -0.2934
     21 C          64.1449   90.5266   14.0466 C.3     1  UNL1        0.0748
     22 C          65.5265   90.7751   13.5181 C.3     1  UNL1        0.0432
     23 H          62.9102   91.7025   15.1720 H       1  UNL1        0.1236
     24 C          64.2814   87.5028   14.1455 C.3     1  UNL1        0.0725
     25 C          63.8186   87.2877   15.5559 C.3     1  UNL1        0.0188
     26 C          63.7233   85.8972   16.1103 C.3     1  UNL1        0.0185
     27 C          64.4330   84.7667   15.4259 C.3     1  UNL1        0.0686
     28 N          63.8078   83.4038   15.3850 N.3     1  UNL1       -0.2985
     29 H          62.9000   83.4825   15.8434 H       1  UNL1        0.1232
     30 C          63.5706   82.7266   14.0678 C.3     1  UNL1        0.0540
     31 C          64.4888   82.9922   12.9119 C.3     1  UNL1        0.0157
     32 C          64.2516   82.3151   11.5946 C.3     1  UNL1        0.0014
     33 C          63.0961   81.3723   11.4333 C.3     1  UNL1        0.0001
     34 C          62.1778   81.1067   12.5893 C.3     1  UNL1        0.0014
     35 C          62.4151   81.7839   13.9065 C.3     1  UNL1        0.0157
@<TRIPOS>BOND
     1    13    14   ar
     2    14    15   ar
     3    15    16   ar
     4    16    17   ar
     5    17    18   ar
     6    17    19    1
     7    19    20    1
     8    20    21    1
     9    21    12    1
    10    12     1    1
    11     1    24    1
    12    24    25    1
    13    25    26    1
    14    26    27    1
    15    27    28    1
    16    28    30    1
    17    30    31    1
    18    31    32    1
    19    32    33    1
    20    33    34    1
    21    34    35    1
    22     2     1    1
    23     2     3    1
    24     3     4    1
    25     4     5    1
    26     5     6    1
    27     6     7   ar
    28     7     8   ar
    29     8     9   ar
    30     9    10   ar
    31    10    11   ar
    32    21    22    1
    33    18    13   ar
    34    35    30    1
    35    11     2    1
    36    22    16    1
    37    11     6   ar
    38    20    23    1
    39    28    29    1
@<TRIPOS>MOLECULE
*****
 35 39 0 0 0
SMALL
GASTEIGER

@<TRIPOS>ATOM
      1 N          61.8490   87.3625   11.2407 N.3     1  UNL1       -0.2679
      2 C          61.0059   87.1204   10.0240 C.3     1  UNL1        0.0978
      3 C          59.6554   87.7627    9.9075 C.3     1  UNL1        0.0224
      4 C          58.8122   87.5205    8.6907 C.3     1  UNL1        0.0065
      5 C          59.3195   86.6361    7.5905 C.3     1  UNL1        0.0277
      6 C          60.6700   85.9938    7.7071 C.ar    1  UNL1       -0.0073
      7 C          61.1774   85.1094    6.6069 C.ar    1  UNL1       -0.0015
      8 C          62.5279   84.4671    6.7235 C.ar    1  UNL1        0.0203
      9 C          63.3710   84.7092    7.9402 C.ar    1  UNL1        0.0985
     10 N          62.8637   85.5936    9.0403 N.ar    1  UNL1       -0.2471
     11 C          61.5132   86.2359    8.9238 C.ar    1  UNL1        0.0695
     12 C          61.7300   88.6563   11.9904 C.3     1  UNL1        0.0886
     13 C          66.3475   93.7409   11.7157 C.ar    1  UNL1       -0.0003
     14 C          66.3923   93.1099   13.0757 C.ar    1  UNL1       -0.0003
     15 C          65.4778   91.9667   13.4027 C.ar    1  UNL1       -0.0045
     16 C          64.5184   91.4546   12.3696 C.ar    1  UNL1       -0.0234
     17 C          64.4736   92.0856   11.0095 C.ar    1  UNL1       -0.0103
     18 C          65.3881   93.2288   10.6826 C.ar    1  UNL1       -0.0032
     19 C          63.5142   91.5735    9.9764 C.3     1  UNL1        0.0953
     20 N          62.5997   90.4304   10.3033 N.3     1  UNL1       -0.2934
     21 C          62.6445   89.7994   11.6635 C.3     1  UNL1        0.0748
     22 C          63.6039   90.3115   12.6965 C.3     1  UNL1        0.0432
     23 H          62.7993   89.6915    9.6292 H       1  UNL1        0.1236
     24 C          62.8112   86.3108   11.7078 C.3     1  UNL1        0.0725
     25 C          62.3416   85.2164   12.6197 C.3     1  UNL1        0.0188
     26 C          63.2035   84.0106   12.8501 C.3     1  UNL1        0.0185
     27 C          63.8921   83.8219   14.1694 C.3     1  UNL1        0.0686
     28 N          64.7905   84.8962   14.7068 N.3     1  UNL1       -0.2985
     29 H          65.3144   85.2661   13.9136 H       1  UNL1        0.1232
     30 C          64.2036   86.0746   15.4256 C.3     1  UNL1        0.0540
     31 C          63.4291   85.8700   16.6938 C.3     1  UNL1        0.0157
     32 C          62.8422   87.0485   17.4127 C.3     1  UNL1        0.0014
     33 C          63.0297   88.4316   16.8633 C.3     1  UNL1        0.0001
     34 C          63.8043   88.6362   15.5951 C.3     1  UNL1        0.0014
     35 C          64.3912   87.4578   14.8763 C.3     1  UNL1        0.0157
@<TRIPOS>BOND
     1    13    14   ar
     2    14    15   ar
     3    15    16   ar
     4    16    17   ar
     5    17    18   ar
     6    17    19    1
     7    19    20    1
     8    20    21    1
     9    21    12    1
    10    12     1    1
    11     1    24    1
    12    24    25    1
    13    25    26    1
    14    26    27    1
    15    27    28    1
    16    28    30    1
    17    30    31    1
    18    31    32    1
    19    32    33    1
    20    33    34    1
    21    34    35    1
    22     2     1    1
    23     2     3    1
    24     3     4    1
    25     4     5    1
    26     5     6    1
    27     6     7   ar
    28     7     8   ar
    29     8     9   ar
    30     9    10   ar
    31    10    11   ar
    32    21    22    1
    33    18    13   ar
    34    35    30    1
    35    11     2    1
    36    22    16    1
    37    11     6   ar
    38    20    23    1
    39    28    29    1
