@<TRIPOS>MOLECULE
*****
 34 37 0 0 0
SMALL
GASTEIGER

@<TRIPOS>ATOM
      1 C          63.4797   87.2405   15.8988 C.ar    1  UNL1        0.0536
      2 C          62.9917   88.2524   16.8926 C.ar    1  UNL1        0.0042
      3 C          63.3327   89.7024   16.7155 C.ar    1  UNL1       -0.0024
      4 C          64.1616   90.1404   15.5447 C.ar    1  UNL1        0.0017
      5 C          64.6497   89.1284   14.5508 C.ar    1  UNL1       -0.0024
      6 C          64.3087   87.6784   14.7278 C.ar    1  UNL1        0.0042
      7 C          63.5606   82.9415   12.6182 C.3     1  UNL1        0.1025
      8 C          63.9015   84.3914   12.4412 C.3     1  UNL1        0.0327
      9 C          63.7609   85.3411   13.5937 C.3     1  UNL1        0.0943
     10 N          63.2794   84.8408   14.9232 N.am    1  UNL1       -0.2761
     11 C          63.1388   85.7905   16.0758 C.2     1  UNL1        0.2490
     12 O          62.6572   85.2902   17.4054 O.2     1  UNL1       -0.2699
     13 C          62.9384   83.3908   15.1003 C.3     1  UNL1        0.0943
     14 C          63.0790   82.4412   13.9478 C.3     1  UNL1        0.0327
     15 C          63.7012   81.9918   11.4656 C.2     1  UNL1        0.3167
     16 O          64.6731   82.2898   10.3626 O.2     1  UNL1       -0.2501
     17 C          62.8714   79.8905   10.1827 C.3     1  UNL1        0.2556
     18 O          62.8700   80.7442   11.4161 O.3     1  UNL1       -0.4444
     19 C          64.5026   91.5904   15.3676 C.3     1  UNL1        0.1822
     20 S          65.3026   92.0329   14.1785 S.O2    1  UNL1        0.0129
     21 O          64.0703   91.9687   13.3256 O.2     1  UNL1       -0.1683
     22 O          66.5348   92.0971   15.0313 O.2     1  UNL1       -0.1683
     23 C          66.1026   92.4755   12.9892 C.ar    1  UNL1        0.1066
     24 C          67.2365   91.6294   12.4911 C.ar    1  UNL1        0.0199
     25 C          68.0364   92.0720   11.3019 C.ar    1  UNL1        0.0210
     26 C          67.7024   93.3607   10.6109 C.ar    1  UNL1        0.0893
     27 N          68.3087   94.0499    9.4245 N.ar    1  UNL1       -0.2245
     28 C          67.5495   95.3220    9.1894 C.ar    1  UNL1        0.1567
     29 N          67.8185   96.3217    8.1038 N.pl3   1  UNL1       -0.3375
     30 S          66.4740   95.4190   10.2305 S.2     1  UNL1       -0.0519
     31 C          66.5685   94.2069   11.1090 C.ar    1  UNL1        0.0510
     32 C          65.7686   93.7643   12.2982 C.ar    1  UNL1        0.0264
     33 H          68.5513   96.1688    7.4644 H       1  UNL1        0.1442
     34 H          67.2622   97.1307    8.0308 H       1  UNL1        0.1442
@<TRIPOS>BOND
     1    17    18    1
     2    18    15    1
     3    15    16    2
     4    15     7    1
     5     7     8    1
     6     8     9    1
     7     9    10    1
     8    10    11   am
     9    11    12    2
    10    11     1    1
    11     1     2   ar
    12     2     3   ar
    13     3     4   ar
    14     4    19    1
    15    19    20    1
    16    20    21    2
    17    20    22    2
    18    20    23    1
    19    23    24   ar
    20    24    25   ar
    21    25    26   ar
    22    26    27   ar
    23    27    28   ar
    24    28    29    1
    25    28    30   ar
    26    30    31   ar
    27    31    32   ar
    28     4     5   ar
    29     5     6   ar
    30    10    13    1
    31    13    14    1
    32    14     7    1
    33     6     1   ar
    34    32    23   ar
    35    31    26   ar
    36    29    33    1
    37    29    34    1
@<TRIPOS>MOLECULE
*****
 34 37 0 0 0
SMALL
GASTEIGER

@<TRIPOS>ATOM
      1 C          64.2142   89.9439   15.7552 C.ar    1  UNL1        0.0536
      2 C          63.3659   89.4640   16.8954 C.ar    1  UNL1        0.0042
      3 C          63.0111   88.0108   17.0064 C.ar    1  UNL1       -0.0024
      4 C          63.5045   87.0375   15.9773 C.ar    1  UNL1        0.0017
      5 C          64.3529   87.5174   14.8370 C.ar    1  UNL1       -0.0024
      6 C          64.7077   88.9706   14.7260 C.ar    1  UNL1        0.0042
      7 C          66.4368   92.9749   11.8664 C.3     1  UNL1        0.1025
      8 C          66.0820   91.5217   11.9774 C.3     1  UNL1        0.0327
      9 C          65.4594   90.9958   13.2367 C.3     1  UNL1        0.0943
     10 N          65.1916   91.9230   14.3849 N.am    1  UNL1       -0.2761
     11 C          64.5690   91.3971   15.6442 C.2     1  UNL1        0.2490
     12 O          64.3012   92.3244   16.7924 O.2     1  UNL1       -0.2699
     13 C          65.5465   93.3762   14.2738 C.3     1  UNL1        0.0943
     14 C          66.1691   93.9022   13.0146 C.3     1  UNL1        0.0327
     15 C          67.0595   93.5008   10.6071 C.2     1  UNL1        0.3167
     16 O          67.2589   94.9768   10.4287 O.2     1  UNL1       -0.2501
     17 C          68.9375   92.3850    9.2007 C.3     1  UNL1        0.2556
     18 O          67.4826   92.5508    9.5262 O.3     1  UNL1       -0.4444
     19 C          63.1497   85.5843   16.0883 C.3     1  UNL1        0.1822
     20 S          63.1909   84.7072   14.8722 S.O2    1  UNL1        0.0129
     21 O          64.6832   84.6131   14.9907 O.2     1  UNL1       -0.1683
     22 O          61.6986   84.8013   14.7537 O.2     1  UNL1       -0.1683
     23 C          63.2322   83.8300   13.6561 C.ar    1  UNL1        0.1066
     24 C          63.6181   84.4084   12.3269 C.ar    1  UNL1        0.0199
     25 C          63.6593   83.5312   11.1109 C.ar    1  UNL1        0.0210
     26 C          63.3147   82.0757   11.2240 C.ar    1  UNL1        0.0893
     27 N          63.2674   80.9735   10.2075 N.ar    1  UNL1       -0.2245
     28 C          62.8523   79.7141   10.9085 C.ar    1  UNL1        0.1567
     29 N          62.6771   78.3672   10.2717 N.pl3   1  UNL1       -0.3375
     30 S          62.6430   80.0378   12.3581 S.2     1  UNL1       -0.0519
     31 C          62.9288   81.4974   12.5531 C.ar    1  UNL1        0.0510
     32 C          62.8876   82.3745   13.7691 C.ar    1  UNL1        0.0264
     33 H          62.8390   78.2540    9.3072 H       1  UNL1        0.1442
     34 H          62.4003   77.5966   10.8182 H       1  UNL1        0.1442
@<TRIPOS>BOND
     1    17    18    1
     2    18    15    1
     3    15    16    2
     4    15     7    1
     5     7     8    1
     6     8     9    1
     7     9    10    1
     8    10    11   am
     9    11    12    2
    10    11     1    1
    11     1     2   ar
    12     2     3   ar
    13     3     4   ar
    14     4    19    1
    15    19    20    1
    16    20    21    2
    17    20    22    2
    18    20    23    1
    19    23    24   ar
    20    24    25   ar
    21    25    26   ar
    22    26    27   ar
    23    27    28   ar
    24    28    29    1
    25    28    30   ar
    26    30    31   ar
    27    31    32   ar
    28     4     5   ar
    29     5     6   ar
    30    10    13    1
    31    13    14    1
    32    14     7    1
    33     6     1   ar
    34    32    23   ar
    35    31    26   ar
    36    29    33    1
    37    29    34    1
@<TRIPOS>MOLECULE
*****
 34 37 0 0 0
SMALL
GASTEIGER

@<TRIPOS>ATOM
      1 C          61.1791   87.9324    9.9002 C.ar    1  UNL1        0.0536
      2 C          61.0748   89.4201    9.7392 C.ar    1  UNL1        0.0042
      3 C          60.2583   89.9981    8.6215 C.ar    1  UNL1       -0.0024
      4 C          59.5462   89.0884    7.6647 C.ar    1  UNL1        0.0017
      5 C          59.6505   87.6007    7.8257 C.ar    1  UNL1       -0.0024
      6 C          60.4670   87.0227    8.9434 C.ar    1  UNL1        0.0042
      7 C          64.2204   90.0811   13.8224 C.3     1  UNL1        0.1025
      8 C          63.4039   90.6591   12.7047 C.3     1  UNL1        0.0327
      9 C          62.6623   89.7503   11.7698 C.3     1  UNL1        0.0943
     10 N          62.7372   88.2634   11.9527 N.am    1  UNL1       -0.2761
     11 C          61.9956   87.3544   11.0179 C.2     1  UNL1        0.2490
     12 O          62.0705   85.8675   11.2008 O.2     1  UNL1       -0.2699
     13 C          63.5537   87.6854   13.0704 C.3     1  UNL1        0.0943
     14 C          64.2953   88.5942   14.0053 C.3     1  UNL1        0.0327
     15 C          64.9620   90.9901   14.7572 C.2     1  UNL1        0.3167
     16 O          64.2302   91.6807   15.8697 O.2     1  UNL1       -0.2501
     17 C          66.9349   92.0889   13.4727 C.3     1  UNL1        0.2556
     18 O          66.4353   91.2084   14.5796 O.3     1  UNL1       -0.4444
     19 C          58.7297   89.6664    6.5470 C.3     1  UNL1        0.1822
     20 S          59.3828   90.5334    5.5118 S.O2    1  UNL1        0.0129
     21 O          60.6190   89.6868    5.5827 O.2     1  UNL1       -0.1683
     22 O          58.1466   91.3799    5.4408 O.2     1  UNL1       -0.1683
     23 C          60.0360   91.4003    4.4764 C.ar    1  UNL1        0.1066
     24 C          59.2458   92.4760    3.7920 C.ar    1  UNL1        0.0199
     25 C          59.8990   93.3429    2.7567 C.ar    1  UNL1        0.0210
     26 C          61.3424   93.1341    2.4059 C.ar    1  UNL1        0.0893
     27 N          62.2494   93.8279    1.4332 N.ar    1  UNL1       -0.2245
     28 C          63.6001   93.1810    1.5165 C.ar    1  UNL1        0.1567
     29 N          64.8106   93.5609    0.7162 N.pl3   1  UNL1       -0.3375
     30 S          63.5279   92.0874    2.5406 S.2     1  UNL1       -0.0519
     31 C          62.1325   92.0584    3.0903 C.ar    1  UNL1        0.0510
     32 C          61.4794   91.1915    4.1256 C.ar    1  UNL1        0.0264
     33 H          64.7587   94.2970    0.0645 H       1  UNL1        0.1442
     34 H          65.6570   93.0742    0.8426 H       1  UNL1        0.1442
@<TRIPOS>BOND
     1    17    18    1
     2    18    15    1
     3    15    16    2
     4    15     7    1
     5     7     8    1
     6     8     9    1
     7     9    10    1
     8    10    11   am
     9    11    12    2
    10    11     1    1
    11     1     2   ar
    12     2     3   ar
    13     3     4   ar
    14     4    19    1
    15    19    20    1
    16    20    21    2
    17    20    22    2
    18    20    23    1
    19    23    24   ar
    20    24    25   ar
    21    25    26   ar
    22    26    27   ar
    23    27    28   ar
    24    28    29    1
    25    28    30   ar
    26    30    31   ar
    27    31    32   ar
    28     4     5   ar
    29     5     6   ar
    30    10    13    1
    31    13    14    1
    32    14     7    1
    33     6     1   ar
    34    32    23   ar
    35    31    26   ar
    36    29    33    1
    37    29    34    1
@<TRIPOS>MOLECULE
*****
 34 37 0 0 0
SMALL
GASTEIGER

@<TRIPOS>ATOM
      1 C          63.4790   89.7720   12.5540 C.ar    1  UNL1        0.0536
      2 C          64.0491   89.8811   13.9371 C.ar    1  UNL1        0.0042
      3 C          64.2929   88.6428   14.7478 C.ar    1  UNL1       -0.0024
      4 C          63.9666   87.2953   14.1753 C.ar    1  UNL1        0.0017
      5 C          63.3964   87.1861   12.7921 C.ar    1  UNL1       -0.0024
      6 C          63.1526   88.4244   11.9815 C.ar    1  UNL1        0.0042
      7 C          66.7102   93.5009   10.3394 C.3     1  UNL1        0.1025
      8 C          66.9540   92.2625   11.1501 C.3     1  UNL1        0.0327
      9 C          65.7957   91.4324   11.6181 C.3     1  UNL1        0.0943
     10 N          64.3936   91.8405   11.2754 N.am    1  UNL1       -0.2761
     11 C          63.2352   91.0103   11.7434 C.2     1  UNL1        0.2490
     12 O          61.8330   91.4184   11.4008 O.2     1  UNL1       -0.2699
     13 C          64.1497   93.0788   10.4648 C.3     1  UNL1        0.0943
     14 C          65.3081   93.9090    9.9968 C.3     1  UNL1        0.0327
     15 C          67.8686   94.3311    9.8714 C.2     1  UNL1        0.3167
     16 O          69.1998   93.6871    9.6201 O.2     1  UNL1       -0.2501
     17 C          67.3586   96.3282    8.2900 C.3     1  UNL1        0.2556
     18 O          67.6957   95.8052    9.6548 O.3     1  UNL1       -0.4444
     19 C          64.2104   86.0570   14.9859 C.3     1  UNL1        0.1822
     20 S          63.8517   84.7120   14.4271 S.O2    1  UNL1        0.0129
     21 O          62.4308   84.9089   14.8654 O.2     1  UNL1       -0.1683
     22 O          65.2726   84.5152   13.9888 O.2     1  UNL1       -0.1683
     23 C          63.4929   83.3670   13.8682 C.ar    1  UNL1        0.1066
     24 C          62.9230   82.3094   14.7663 C.ar    1  UNL1        0.0199
     25 C          62.5642   80.9645   14.2074 C.ar    1  UNL1        0.0210
     26 C          62.7754   80.6771   12.7504 C.ar    1  UNL1        0.0893
     27 N          62.5182   79.4540   11.9210 N.ar    1  UNL1       -0.2245
     28 C          62.9292   79.7557   10.5104 C.ar    1  UNL1        0.1567
     29 N          62.8440   78.8132    9.3464 N.pl3   1  UNL1       -0.3375
     30 S          63.4404   81.1652   10.4679 S.2     1  UNL1       -0.0519
     31 C          63.3453   81.7347   11.8523 C.ar    1  UNL1        0.0510
     32 C          63.7041   83.0797   12.4112 C.ar    1  UNL1        0.0264
     33 H          62.4921   77.9028    9.4750 H       1  UNL1        0.1442
     34 H          63.1400   79.1051    8.4540 H       1  UNL1        0.1442
@<TRIPOS>BOND
     1    17    18    1
     2    18    15    1
     3    15    16    2
     4    15     7    1
     5     7     8    1
     6     8     9    1
     7     9    10    1
     8    10    11   am
     9    11    12    2
    10    11     1    1
    11     1     2   ar
    12     2     3   ar
    13     3     4   ar
    14     4    19    1
    15    19    20    1
    16    20    21    2
    17    20    22    2
    18    20    23    1
    19    23    24   ar
    20    24    25   ar
    21    25    26   ar
    22    26    27   ar
    23    27    28   ar
    24    28    29    1
    25    28    30   ar
    26    30    31   ar
    27    31    32   ar
    28     4     5   ar
    29     5     6   ar
    30    10    13    1
    31    13    14    1
    32    14     7    1
    33     6     1   ar
    34    32    23   ar
    35    31    26   ar
    36    29    33    1
    37    29    34    1
@<TRIPOS>MOLECULE
*****
 34 37 0 0 0
SMALL
GASTEIGER

@<TRIPOS>ATOM
      1 C          59.1625   89.8130    6.5235 C.ar    1  UNL1        0.0536
      2 C          59.8732   90.3135    7.7459 C.ar    1  UNL1        0.0042
      3 C          60.3565   89.3432    8.7826 C.ar    1  UNL1       -0.0024
      4 C          60.1289   87.8722    8.5971 C.ar    1  UNL1        0.0017
      5 C          59.4181   87.3716    7.3747 C.ar    1  UNL1       -0.0024
      6 C          58.9349   88.3419    6.3379 C.ar    1  UNL1        0.0042
      7 C          61.5955   92.6271    2.5979 C.3     1  UNL1        0.1025
      8 C          62.0787   91.6568    3.6346 C.3     1  UNL1        0.0327
      9 C          61.1067   91.0422    4.5976 C.3     1  UNL1        0.0943
     10 N          59.6514   91.3979    4.5238 N.am    1  UNL1       -0.2761
     11 C          58.6792   90.7833    5.4868 C.2     1  UNL1        0.2490
     12 O          57.2239   91.1391    5.4130 O.2     1  UNL1       -0.2699
     13 C          59.1681   92.3683    3.4870 C.3     1  UNL1        0.0943
     14 C          60.1402   92.9829    2.5241 C.3     1  UNL1        0.0327
     15 C          62.5676   93.2417    1.6349 C.2     1  UNL1        0.3167
     16 O          62.1320   94.3689    0.7462 O.2     1  UNL1       -0.2501
     17 C          65.0437   93.5621    0.9167 C.3     1  UNL1        0.2556
     18 O          63.9753   92.7291    1.5605 O.3     1  UNL1       -0.4444
     19 C          60.6122   86.9019    9.6338 C.3     1  UNL1        0.1822
     20 S          61.5331   87.3652   10.7234 S.O2    1  UNL1        0.0129
     21 O          62.7054   87.2014    9.8022 O.2     1  UNL1       -0.1683
     22 O          60.3607   87.5291   11.6446 O.2     1  UNL1       -0.1683
     23 C          62.4541   87.8286   11.8129 C.ar    1  UNL1        0.1066
     24 C          63.0939   86.8287   12.7299 C.ar    1  UNL1        0.0199
     25 C          64.0148   87.2921   13.8194 C.ar    1  UNL1        0.0210
     26 C          64.2960   88.7554   13.9920 C.ar    1  UNL1        0.0893
     27 N          65.1538   89.5043   14.9684 N.ar    1  UNL1       -0.2245
     28 C          65.0441   90.9670   14.6548 C.ar    1  UNL1        0.1567
     29 N          65.7382   92.0795   15.3835 N.pl3   1  UNL1       -0.3375
     30 S          64.1186   91.1221   13.4847 S.2     1  UNL1       -0.0519
     31 C          63.6562   89.7553   13.0750 C.ar    1  UNL1        0.0510
     32 C          62.7352   89.2919   11.9855 C.ar    1  UNL1        0.0264
     33 H          66.3296   91.8762   16.1439 H       1  UNL1        0.1442
     34 H          65.6023   93.0128   15.1014 H       1  UNL1        0.1442
@<TRIPOS>BOND
     1    17    18    1
     2    18    15    1
     3    15    16    2
     4    15     7    1
     5     7     8    1
     6     8     9    1
     7     9    10    1
     8    10    11   am
     9    11    12    2
    10    11     1    1
    11     1     2   ar
    12     2     3   ar
    13     3     4   ar
    14     4    19    1
    15    19    20    1
    16    20    21    2
    17    20    22    2
    18    20    23    1
    19    23    24   ar
    20    24    25   ar
    21    25    26   ar
    22    26    27   ar
    23    27    28   ar
    24    28    29    1
    25    28    30   ar
    26    30    31   ar
    27    31    32   ar
    28     4     5   ar
    29     5     6   ar
    30    10    13    1
    31    13    14    1
    32    14     7    1
    33     6     1   ar
    34    32    23   ar
    35    31    26   ar
    36    29    33    1
    37    29    34    1
@<TRIPOS>MOLECULE
*****
 34 37 0 0 0
SMALL
GASTEIGER

@<TRIPOS>ATOM
      1 C          59.5680   92.4734    4.0154 C.ar    1  UNL1        0.0536
      2 C          60.7395   91.6437    4.4503 C.ar    1  UNL1        0.0042
      3 C          60.5262   90.4486    5.3314 C.ar    1  UNL1       -0.0024
      4 C          59.1416   90.0832    5.7775 C.ar    1  UNL1        0.0017
      5 C          57.9700   90.9130    5.3427 C.ar    1  UNL1       -0.0024
      6 C          58.1832   92.1081    4.4616 C.ar    1  UNL1        0.0042
      7 C          59.4969   93.2470   -1.3368 C.3     1  UNL1        0.1025
      8 C          59.2836   92.0519   -0.4558 C.3     1  UNL1        0.0327
      9 C          59.3784   92.1924    1.0346 C.3     1  UNL1        0.0943
     10 N          59.6864   93.5280    1.6439 N.am    1  UNL1       -0.2761
     11 C          59.7812   93.6685    3.1343 C.2     1  UNL1        0.2490
     12 O          60.0892   95.0041    3.7436 O.2     1  UNL1       -0.2699
     13 C          59.8996   94.7231    0.7628 C.3     1  UNL1        0.0943
     14 C          59.8048   94.5826   -0.7275 C.3     1  UNL1        0.0327
     15 C          59.4021   93.1064   -2.8273 C.2     1  UNL1        0.3167
     16 O          60.4092   93.7822   -3.7099 O.2     1  UNL1       -0.2501
     17 C          56.8684   92.6193   -3.1322 C.3     1  UNL1        0.2556
     18 O          58.3002   92.2901   -3.4350 O.3     1  UNL1       -0.4444
     19 C          58.9284   88.8881    6.6586 C.3     1  UNL1        0.1822
     20 S          59.8103   88.6692    7.8520 S.O2    1  UNL1        0.0129
     21 O          60.1047   87.2766    7.3790 O.2     1  UNL1       -0.1683
     22 O          59.5159   90.0619    8.3250 O.2     1  UNL1       -0.1683
     23 C          60.6923   88.4503    9.0454 C.ar    1  UNL1        0.1066
     24 C          60.9642   87.0576    9.5317 C.ar    1  UNL1        0.0199
     25 C          61.8462   86.8388   10.7251 C.ar    1  UNL1        0.0210
     26 C          62.4562   88.0126   11.4322 C.ar    1  UNL1        0.0893
     27 N          63.3595   88.1065   12.6261 N.ar    1  UNL1       -0.2245
     28 C          63.6458   89.5572   12.8777 C.ar    1  UNL1        0.1567
     29 N          64.5072   90.1086   13.9750 N.pl3   1  UNL1       -0.3375
     30 S          62.9195   90.3599   11.8393 S.2     1  UNL1       -0.0519
     31 C          62.1843   89.4052   10.9460 C.ar    1  UNL1        0.0510
     32 C          61.3023   89.6241    9.7526 C.ar    1  UNL1        0.0264
     33 H          64.9445   89.4979   14.6115 H       1  UNL1        0.1442
     34 H          64.6353   91.0811   14.0587 H       1  UNL1        0.1442
@<TRIPOS>BOND
     1    17    18    1
     2    18    15    1
     3    15    16    2
     4    15     7    1
     5     7     8    1
     6     8     9    1
     7     9    10    1
     8    10    11   am
     9    11    12    2
    10    11     1    1
    11     1     2   ar
    12     2     3   ar
    13     3     4   ar
    14     4    19    1
    15    19    20    1
    16    20    21    2
    17    20    22    2
    18    20    23    1
    19    23    24   ar
    20    24    25   ar
    21    25    26   ar
    22    26    27   ar
    23    27    28   ar
    24    28    29    1
    25    28    30   ar
    26    30    31   ar
    27    31    32   ar
    28     4     5   ar
    29     5     6   ar
    30    10    13    1
    31    13    14    1
    32    14     7    1
    33     6     1   ar
    34    32    23   ar
    35    31    26   ar
    36    29    33    1
    37    29    34    1
@<TRIPOS>MOLECULE
*****
 34 37 0 0 0
SMALL
GASTEIGER

@<TRIPOS>ATOM
      1 C          62.6966   86.2093   10.2102 C.ar    1  UNL1        0.0536
      2 C          62.9778   86.5495   11.6438 C.ar    1  UNL1        0.0042
      3 C          62.8582   87.9684   12.1153 C.ar    1  UNL1       -0.0024
      4 C          62.4573   89.0471   11.1533 C.ar    1  UNL1        0.0017
      5 C          62.1760   88.7070    9.7196 C.ar    1  UNL1       -0.0024
      6 C          62.2957   87.2881    9.2481 C.ar    1  UNL1        0.0042
      7 C          62.7273   81.4155   12.7139 C.3     1  UNL1        0.1025
      8 C          62.6076   82.8345   13.1855 C.3     1  UNL1        0.0327
      9 C          62.6373   83.9594   12.1937 C.3     1  UNL1        0.0943
     10 N          62.7866   83.6654   10.7305 N.am    1  UNL1       -0.2761
     11 C          62.8163   84.7904    9.7386 C.2     1  UNL1        0.2490
     12 O          62.9656   84.4964    8.2754 O.2     1  UNL1       -0.2699
     13 C          62.9063   82.2465   10.2589 C.3     1  UNL1        0.0943
     14 C          62.8766   81.1216   11.2506 C.3     1  UNL1        0.0327
     15 C          62.6976   80.2906   13.7057 C.2     1  UNL1        0.3167
     16 O          63.9436   79.9156   14.4520 O.2     1  UNL1       -0.2501
     17 C          60.1414   80.2904   14.1696 C.3     1  UNL1        0.2556
     18 O          61.4220   79.5406   13.9513 O.3     1  UNL1       -0.4444
     19 C          62.3376   90.4661   11.6248 C.3     1  UNL1        0.1822
     20 S          63.5393   91.1790   12.1703 S.O2    1  UNL1        0.0129
     21 O          63.9162   91.6055   10.7826 O.2     1  UNL1       -0.1683
     22 O          63.1624   90.7524   13.5581 O.2     1  UNL1       -0.1683
     23 C          64.7410   91.8920   12.7158 C.ar    1  UNL1        0.1066
     24 C          65.2714   93.1095   12.0185 C.ar    1  UNL1        0.0199
     25 C          66.4731   93.8224   12.5640 C.ar    1  UNL1        0.0210
     26 C          67.1445   93.3178   13.8068 C.ar    1  UNL1        0.0893
     27 N          68.3369   93.8085   14.5733 N.ar    1  UNL1       -0.2245
     28 C          68.5435   92.8941   15.7443 C.ar    1  UNL1        0.1567
     29 N          69.6249   93.0144   16.7769 N.pl3   1  UNL1       -0.3375
     30 S          67.4787   91.8384   15.7016 S.2     1  UNL1       -0.0519
     31 C          66.6141   92.1002   14.5042 C.ar    1  UNL1        0.0510
     32 C          65.4124   91.3873   13.9587 C.ar    1  UNL1        0.0264
     33 H          70.2813   93.7459   16.7194 H       1  UNL1        0.1442
     34 H          69.6783   92.3618   17.5121 H       1  UNL1        0.1442
@<TRIPOS>BOND
     1    17    18    1
     2    18    15    1
     3    15    16    2
     4    15     7    1
     5     7     8    1
     6     8     9    1
     7     9    10    1
     8    10    11   am
     9    11    12    2
    10    11     1    1
    11     1     2   ar
    12     2     3   ar
    13     3     4   ar
    14     4    19    1
    15    19    20    1
    16    20    21    2
    17    20    22    2
    18    20    23    1
    19    23    24   ar
    20    24    25   ar
    21    25    26   ar
    22    26    27   ar
    23    27    28   ar
    24    28    29    1
    25    28    30   ar
    26    30    31   ar
    27    31    32   ar
    28     4     5   ar
    29     5     6   ar
    30    10    13    1
    31    13    14    1
    32    14     7    1
    33     6     1   ar
    34    32    23   ar
    35    31    26   ar
    36    29    33    1
    37    29    34    1
@<TRIPOS>MOLECULE
*****
 34 37 0 0 0
SMALL
GASTEIGER

@<TRIPOS>ATOM
      1 C          63.8027   91.5097   10.9649 C.ar    1  UNL1        0.0536
      2 C          63.6750   90.4639   12.0325 C.ar    1  UNL1        0.0042
      3 C          62.8397   89.2420   11.7893 C.ar    1  UNL1       -0.0024
      4 C          62.1321   89.0659   10.4785 C.ar    1  UNL1        0.0017
      5 C          62.2598   90.1118    9.4108 C.ar    1  UNL1       -0.0024
      6 C          63.0951   91.3337    9.6540 C.ar    1  UNL1        0.0042
      7 C          67.1960   93.0103   14.8999 C.3     1  UNL1        0.1025
      8 C          66.3607   91.7884   14.6567 C.3     1  UNL1        0.0327
      9 C          65.5080   91.6955   13.4261 C.3     1  UNL1        0.0943
     10 N          65.4907   92.8245   12.4388 N.am    1  UNL1       -0.2761
     11 C          64.6381   92.7317   11.2081 C.2     1  UNL1        0.2490
     12 O          64.6208   93.8607   10.2208 O.2     1  UNL1       -0.2699
     13 C          66.3261   94.0464   12.6820 C.3     1  UNL1        0.0943
     14 C          67.1787   94.1393   13.9125 C.3     1  UNL1        0.0327
     15 C          68.0487   93.1031   16.1305 C.2     1  UNL1        0.3167
     16 O          68.2781   91.8866   16.9775 O.2     1  UNL1       -0.2501
     17 C          70.0903   94.7097   16.1276 C.3     1  UNL1        0.2556
     18 O          68.6719   94.4125   16.5142 O.3     1  UNL1       -0.4444
     19 C          61.2968   87.8440   10.2353 C.3     1  UNL1        0.1822
     20 S          61.8501   86.4840   10.5421 S.O2    1  UNL1        0.0129
     21 O          62.6042   86.4984    9.2455 O.2     1  UNL1       -0.1683
     22 O          61.0960   86.4696   11.8386 O.2     1  UNL1       -0.1683
     23 C          62.4035   85.1239   10.8488 C.ar    1  UNL1        0.1066
     24 C          63.2269   84.4008    9.8246 C.ar    1  UNL1        0.0199
     25 C          63.7803   83.0408   10.1314 C.ar    1  UNL1        0.0210
     26 C          63.5102   82.4039   11.4623 C.ar    1  UNL1        0.0893
     27 N          63.9202   81.0838   12.0450 N.ar    1  UNL1       -0.2245
     28 C          63.3502   80.9912   13.4294 C.ar    1  UNL1        0.1567
     29 N          63.5137   79.8383   14.3750 N.pl3   1  UNL1       -0.3375
     30 S          62.5878   82.2539   13.7022 S.2     1  UNL1       -0.0519
     31 C          62.6867   83.1270   12.4865 C.ar    1  UNL1        0.0510
     32 C          62.1334   84.4870   12.1797 C.ar    1  UNL1        0.0264
     33 H          64.0354   79.0489   14.1031 H       1  UNL1        0.1442
     34 H          63.0993   79.8709   15.2674 H       1  UNL1        0.1442
@<TRIPOS>BOND
     1    17    18    1
     2    18    15    1
     3    15    16    2
     4    15     7    1
     5     7     8    1
     6     8     9    1
     7     9    10    1
     8    10    11   am
     9    11    12    2
    10    11     1    1
    11     1     2   ar
    12     2     3   ar
    13     3     4   ar
    14     4    19    1
    15    19    20    1
    16    20    21    2
    17    20    22    2
    18    20    23    1
    19    23    24   ar
    20    24    25   ar
    21    25    26   ar
    22    26    27   ar
    23    27    28   ar
    24    28    29    1
    25    28    30   ar
    26    30    31   ar
    27    31    32   ar
    28     4     5   ar
    29     5     6   ar
    30    10    13    1
    31    13    14    1
    32    14     7    1
    33     6     1   ar
    34    32    23   ar
    35    31    26   ar
    36    29    33    1
    37    29    34    1
