@<TRIPOS>MOLECULE
*****
 30 34 0 0 0
SMALL
GASTEIGER

@<TRIPOS>ATOM
      1 C          62.2388   88.2935   11.4144 C.3     1  UNL1        0.1420
      2 C          62.1679   89.7892   11.3257 C.3     1  UNL1        0.0268
      3 C          61.3731   90.4389   10.2320 C.3     1  UNL1        0.0021
      4 C          60.6492   89.5928    9.2270 C.3     1  UNL1        0.0027
      5 C          60.7200   88.0971    9.3156 C.3     1  UNL1        0.0352
      6 C          60.6988   86.5978    9.2772 C.3     1  UNL1        0.0347
      7 C          59.8558   86.1760    8.1104 C.3     1  UNL1        0.1422
      8 O          59.3561   87.4146    7.4277 O.3     1  UNL1       -0.3538
      9 C          59.8902   88.6020    8.1726 C.3     1  UNL1        0.1423
     10 C          61.5148   87.4475   10.4094 C.3     1  UNL1        0.0709
     11 C          61.5856   85.9518   10.4980 C.3     1  UNL1        0.2075
     12 O          62.3804   85.3021   11.5917 O.3     1  UNL1       -0.4733
     13 C          63.1044   86.1480   12.5968 C.ar    1  UNL1        0.1654
     14 C          63.8992   85.4984   13.6905 C.ar    1  UNL1        0.1737
     15 F          63.9700   84.0027   13.7792 F       1  UNL1       -0.2010
     16 C          64.6231   86.3444   14.6956 C.ar    1  UNL1        0.0351
     17 C          64.5523   87.8401   14.6069 C.ar    1  UNL1        0.0319
     18 C          63.7575   88.4898   13.5132 C.ar    1  UNL1        0.1407
     19 F          63.9010   89.9685   13.7204 F       1  UNL1       -0.2043
     20 C          63.0336   87.6437   12.5081 C.ar    1  UNL1        0.0616
     21 O          61.8658   89.7234   13.2597 O.2     1  UNL1       -0.1684
     22 S          62.9628   89.1395   12.4195 S.O2    1  UNL1        0.0093
     23 O          63.7585   89.1672   12.3816 O.2     1  UNL1       -0.1684
     24 C          63.6867   89.9854   13.4246 C.ar    1  UNL1        0.1059
     25 C          63.1614   90.1012   14.8249 C.ar    1  UNL1        0.0192
     26 C          63.8853   90.9471   15.8299 C.ar    1  UNL1        0.0127
     27 C          65.1345   91.6774   15.4348 C.ar    1  UNL1        0.0578
     28 CL         65.8585   92.5234   16.4399 Cl      1  UNL1       -0.0822
     29 C          65.6598   91.5617   14.0346 C.ar    1  UNL1        0.0127
     30 C          64.9359   90.7157   13.0295 C.ar    1  UNL1        0.0192
@<TRIPOS>BOND
     1    21    22    2
     2    22    23    2
     3    22    24    1
     4    24    25   ar
     5    25    26   ar
     6    26    27   ar
     7    27    28    1
     8    27    29   ar
     9    29    30   ar
    10     1    22    1
    11     1     2    1
    12     2     3    1
    13     3     4    1
    14     5     4    1
    15     5     6    1
    16     6     7    1
    17     7     8    1
    18     8     9    1
    19     5    10    1
    20    10    11    1
    21    11    12    1
    22    12    13    1
    23    13    14   ar
    24    14    15    1
    25    14    16   ar
    26    16    17   ar
    27    17    18   ar
    28    18    19    1
    29    18    20   ar
    30    30    24   ar
    31    10     1    1
    32    20    13   ar
    33    20     1    1
    34     9     5    1
@<TRIPOS>MOLECULE
*****
 30 34 0 0 0
SMALL
GASTEIGER

@<TRIPOS>ATOM
      1 C          62.9971   87.8008   11.7518 C.3     1  UNL1        0.1420
      2 C          62.6254   88.5698   10.5188 C.3     1  UNL1        0.0268
      3 C          62.7247   90.0665   10.5099 C.3     1  UNL1        0.0021
      4 C          63.1958   90.7941   11.7341 C.3     1  UNL1        0.0027
      5 C          63.5674   90.0251   12.9672 C.3     1  UNL1        0.0352
      6 C          63.9715   89.3945   14.2668 C.3     1  UNL1        0.0347
      7 C          64.3709   90.4909   15.2095 C.3     1  UNL1        0.1422
      8 O          64.2137   91.7990   14.4924 O.3     1  UNL1       -0.3538
      9 C          63.7171   91.5111   13.1066 C.3     1  UNL1        0.1423
     10 C          63.4681   88.5285   12.9760 C.3     1  UNL1        0.0709
     11 C          63.8398   87.7594   14.2091 C.3     1  UNL1        0.2075
     12 O          63.7405   86.2628   14.2181 O.3     1  UNL1       -0.4733
     13 C          63.2695   85.5350   12.9939 C.ar    1  UNL1        0.1654
     14 C          63.1701   84.0384   13.0027 C.ar    1  UNL1        0.1737
     15 F          63.5418   83.2694   14.2358 F       1  UNL1       -0.2010
     16 C          62.6991   83.3107   11.7786 C.ar    1  UNL1        0.0351
     17 C          62.3274   84.0797   10.5455 C.ar    1  UNL1        0.0319
     18 C          62.4267   85.5764   10.5366 C.ar    1  UNL1        0.1407
     19 F          61.9864   86.0117    9.1704 F       1  UNL1       -0.2043
     20 C          62.8978   86.3041   11.7608 C.ar    1  UNL1        0.0616
     21 O          61.2684   86.3881   10.9742 O.2     1  UNL1       -0.1684
     22 S          62.5260   87.0730   10.5277 S.O2    1  UNL1        0.0093
     23 O          62.9615   87.1375    9.8631 O.2     1  UNL1       -0.1684
     24 C          62.0550   86.3453    9.3036 C.ar    1  UNL1        0.1059
     25 C          63.0359   85.5916    8.4551 C.ar    1  UNL1        0.0192
     26 C          62.5648   84.8639    7.2311 C.ar    1  UNL1        0.0127
     27 C          61.1129   84.8898    6.8554 C.ar    1  UNL1        0.0578
     28 CL         60.6417   84.1620    5.6312 Cl      1  UNL1       -0.0822
     29 C          60.1320   85.6435    7.7038 C.ar    1  UNL1        0.0127
     30 C          60.6030   86.3712    8.9279 C.ar    1  UNL1        0.0192
@<TRIPOS>BOND
     1    21    22    2
     2    22    23    2
     3    22    24    1
     4    24    25   ar
     5    25    26   ar
     6    26    27   ar
     7    27    28    1
     8    27    29   ar
     9    29    30   ar
    10     1    22    1
    11     1     2    1
    12     2     3    1
    13     3     4    1
    14     5     4    1
    15     5     6    1
    16     6     7    1
    17     7     8    1
    18     8     9    1
    19     5    10    1
    20    10    11    1
    21    11    12    1
    22    12    13    1
    23    13    14   ar
    24    14    15    1
    25    14    16   ar
    26    16    17   ar
    27    17    18   ar
    28    18    19    1
    29    18    20   ar
    30    30    24   ar
    31    10     1    1
    32    20    13   ar
    33    20     1    1
    34     9     5    1
@<TRIPOS>MOLECULE
*****
 30 34 0 0 0
SMALL
GASTEIGER

@<TRIPOS>ATOM
      1 C          63.5771   86.6421   13.2573 C.3     1  UNL1        0.1420
      2 C          64.3113   86.6266   14.5652 C.3     1  UNL1        0.0268
      3 C          64.6924   85.3201   15.1959 C.3     1  UNL1        0.0021
      4 C          64.3393   84.0291   14.5186 C.3     1  UNL1        0.0027
      5 C          63.6051   84.0446   13.2107 C.3     1  UNL1        0.0352
      6 C          62.8766   83.9033   11.9072 C.3     1  UNL1        0.0347
      7 C          62.7398   82.4396   11.6090 C.3     1  UNL1        0.1422
      8 O          63.3837   81.6763   12.7283 O.3     1  UNL1       -0.3538
      9 C          63.9186   82.6683   13.7182 C.3     1  UNL1        0.1423
     10 C          63.2239   85.3511   12.5800 C.3     1  UNL1        0.0709
     11 C          62.4897   85.3666   11.2721 C.3     1  UNL1        0.2075
     12 O          62.1085   86.6730   10.6414 O.3     1  UNL1       -0.4733
     13 C          62.4616   87.9641   11.3185 C.ar    1  UNL1        0.1654
     14 C          62.0805   89.2706   10.6879 C.ar    1  UNL1        0.1737
     15 F          61.3462   89.2861    9.3800 F       1  UNL1       -0.2010
     16 C          62.4336   90.5616   11.3651 C.ar    1  UNL1        0.0351
     17 C          63.1678   90.5461   12.6730 C.ar    1  UNL1        0.0319
     18 C          63.5490   89.2396   13.3037 C.ar    1  UNL1        0.1407
     19 F          64.2575   89.5876   14.5792 F       1  UNL1       -0.2043
     20 C          63.1958   87.9486   12.6264 C.ar    1  UNL1        0.0616
     21 O          63.5678   87.7003   15.3713 O.2     1  UNL1       -0.1684
     22 S          63.9301   87.9332   13.9344 S.O2    1  UNL1        0.0093
     23 O          64.2347   88.5190   13.4878 O.2     1  UNL1       -0.1684
     24 C          64.2832   89.2242   14.6116 C.ar    1  UNL1        0.1059
     25 C          65.5296   89.9607   14.2190 C.ar    1  UNL1        0.0192
     26 C          65.8826   91.2516   14.8962 C.ar    1  UNL1        0.0127
     27 C          64.9893   91.8062   15.9659 C.ar    1  UNL1        0.0578
     28 CL         65.3423   93.0973   16.6432 Cl      1  UNL1       -0.0822
     29 C          63.7429   91.0698   16.3585 C.ar    1  UNL1        0.0127
     30 C          63.3898   89.7788   15.6813 C.ar    1  UNL1        0.0192
@<TRIPOS>BOND
     1    21    22    2
     2    22    23    2
     3    22    24    1
     4    24    25   ar
     5    25    26   ar
     6    26    27   ar
     7    27    28    1
     8    27    29   ar
     9    29    30   ar
    10     1    22    1
    11     1     2    1
    12     2     3    1
    13     3     4    1
    14     5     4    1
    15     5     6    1
    16     6     7    1
    17     7     8    1
    18     8     9    1
    19     5    10    1
    20    10    11    1
    21    11    12    1
    22    12    13    1
    23    13    14   ar
    24    14    15    1
    25    14    16   ar
    26    16    17   ar
    27    17    18   ar
    28    18    19    1
    29    18    20   ar
    30    30    24   ar
    31    10     1    1
    32    20    13   ar
    33    20     1    1
    34     9     5    1
@<TRIPOS>MOLECULE
*****
 30 34 0 0 0
SMALL
GASTEIGER

@<TRIPOS>ATOM
      1 C          64.6863   91.3844   12.8507 C.3     1  UNL1        0.1420
      2 C          65.2382   91.4106   14.2452 C.3     1  UNL1        0.0268
      3 C          66.1248   92.5398   14.6798 C.3     1  UNL1        0.0021
      4 C          66.4594   93.6428   13.7198 C.3     1  UNL1        0.0027
      5 C          65.9075   93.6166   12.3253 C.3     1  UNL1        0.0352
      6 C          65.4323   93.7253   10.9068 C.3     1  UNL1        0.0347
      7 C          66.0072   94.9804   10.3202 C.3     1  UNL1        0.1422
      8 O          66.8377   95.6475   11.3763 O.3     1  UNL1       -0.3538
      9 C          66.7761   94.8046   12.6155 C.3     1  UNL1        0.1423
     10 C          65.0209   92.4874   11.8907 C.3     1  UNL1        0.0709
     11 C          64.4690   92.4612   10.4962 C.3     1  UNL1        0.2075
     12 O          63.5824   91.3321   10.0616 O.3     1  UNL1       -0.4733
     13 C          63.2477   90.2290   11.0214 C.ar    1  UNL1        0.1654
     14 C          62.3611   89.0998   10.5868 C.ar    1  UNL1        0.1737
     15 F          61.8092   89.0736    9.1923 F       1  UNL1       -0.2010
     16 C          62.0265   87.9968   11.5468 C.ar    1  UNL1        0.0351
     17 C          62.5784   88.0230   12.9413 C.ar    1  UNL1        0.0319
     18 C          63.4650   89.1522   13.3759 C.ar    1  UNL1        0.1407
     19 F          63.8299   88.8657   14.8023 F       1  UNL1       -0.2043
     20 C          63.7996   90.2552   12.4159 C.ar    1  UNL1        0.0616
     21 O          62.8811   90.4474   14.0556 O.2     1  UNL1       -0.1684
     22 S          64.3516   90.2814   13.8105 S.O2    1  UNL1        0.0093
     23 O          64.9399   89.7968   14.0438 O.2     1  UNL1       -0.1684
     24 C          64.0168   89.1784   14.7703 C.ar    1  UNL1        0.1059
     25 C          63.1726   89.4645   15.9768 C.ar    1  UNL1        0.0192
     26 C          62.8378   88.3615   16.9366 C.ar    1  UNL1        0.0127
     27 C          63.3473   86.9724   16.6900 C.ar    1  UNL1        0.0578
     28 CL         63.0126   85.8693   17.6499 Cl      1  UNL1       -0.0822
     29 C          64.1915   86.6863   15.4837 C.ar    1  UNL1        0.0127
     30 C          64.5263   87.7893   14.5238 C.ar    1  UNL1        0.0192
@<TRIPOS>BOND
     1    21    22    2
     2    22    23    2
     3    22    24    1
     4    24    25   ar
     5    25    26   ar
     6    26    27   ar
     7    27    28    1
     8    27    29   ar
     9    29    30   ar
    10     1    22    1
    11     1     2    1
    12     2     3    1
    13     3     4    1
    14     5     4    1
    15     5     6    1
    16     6     7    1
    17     7     8    1
    18     8     9    1
    19     5    10    1
    20    10    11    1
    21    11    12    1
    22    12    13    1
    23    13    14   ar
    24    14    15    1
    25    14    16   ar
    26    16    17   ar
    27    17    18   ar
    28    18    19    1
    29    18    20   ar
    30    30    24   ar
    31    10     1    1
    32    20    13   ar
    33    20     1    1
    34     9     5    1
@<TRIPOS>MOLECULE
*****
 30 34 0 0 0
SMALL
GASTEIGER

@<TRIPOS>ATOM
      1 C          63.4060   87.2635   12.8224 C.3     1  UNL1        0.1420
      2 C          63.8980   86.6350   14.0924 C.3     1  UNL1        0.0268
      3 C          64.4742   87.4929   15.1795 C.3     1  UNL1        0.0021
      4 C          64.5584   88.9794   14.9967 C.3     1  UNL1        0.0027
      5 C          64.0664   89.6079   13.7267 C.3     1  UNL1        0.0352
      6 C          63.6169   90.3744   12.5183 C.3     1  UNL1        0.0347
      7 C          63.8876   91.8290   12.7650 C.3     1  UNL1        0.1422
      8 O          64.5044   91.9615   14.1259 O.3     1  UNL1       -0.3538
      9 C          64.6149   90.5887   14.7203 C.3     1  UNL1        0.1423
     10 C          63.4902   88.7500   12.6396 C.3     1  UNL1        0.0709
     11 C          62.9981   89.3785   11.3696 C.3     1  UNL1        0.2075
     12 O          62.4219   88.5207   10.2824 O.3     1  UNL1       -0.4733
     13 C          62.3376   87.0342   10.4652 C.ar    1  UNL1        0.1654
     14 C          61.7614   86.1763    9.3780 C.ar    1  UNL1        0.1737
     15 F          61.2694   86.8048    8.1080 F       1  UNL1       -0.2010
     16 C          61.6772   84.6898    9.5608 C.ar    1  UNL1        0.0351
     17 C          62.1692   84.0613   10.8308 C.ar    1  UNL1        0.0319
     18 C          62.7455   84.9192   11.9180 C.ar    1  UNL1        0.1407
     19 F          63.1306   83.9818   13.0238 F       1  UNL1       -0.2043
     20 C          62.8297   86.4057   11.7351 C.ar    1  UNL1        0.0616
     21 O          61.8783   85.4610   12.7470 O.2     1  UNL1       -0.1684
     22 S          63.3217   85.7771   13.0051 S.O2    1  UNL1        0.0093
     23 O          63.9888   85.3851   13.1970 O.2     1  UNL1       -0.1684
     24 C          63.2374   84.2907   13.1879 C.ar    1  UNL1        0.1059
     25 C          64.2381   83.3949   12.5198 C.ar    1  UNL1        0.0192
     26 C          64.1538   81.9086   12.7025 C.ar    1  UNL1        0.0127
     27 C          63.0689   81.3178   13.5533 C.ar    1  UNL1        0.0578
     28 CL         62.9845   79.8313   13.7361 Cl      1  UNL1       -0.0822
     29 C          62.0682   82.2135   14.2214 C.ar    1  UNL1        0.0127
     30 C          62.1525   83.7000   14.0387 C.ar    1  UNL1        0.0192
@<TRIPOS>BOND
     1    21    22    2
     2    22    23    2
     3    22    24    1
     4    24    25   ar
     5    25    26   ar
     6    26    27   ar
     7    27    28    1
     8    27    29   ar
     9    29    30   ar
    10     1    22    1
    11     1     2    1
    12     2     3    1
    13     3     4    1
    14     5     4    1
    15     5     6    1
    16     6     7    1
    17     7     8    1
    18     8     9    1
    19     5    10    1
    20    10    11    1
    21    11    12    1
    22    12    13    1
    23    13    14   ar
    24    14    15    1
    25    14    16   ar
    26    16    17   ar
    27    17    18   ar
    28    18    19    1
    29    18    20   ar
    30    30    24   ar
    31    10     1    1
    32    20    13   ar
    33    20     1    1
    34     9     5    1
@<TRIPOS>MOLECULE
*****
 30 34 0 0 0
SMALL
GASTEIGER

@<TRIPOS>ATOM
      1 C          62.1591   86.6875   11.1966 C.3     1  UNL1        0.1420
      2 C          61.7059   85.4124   10.5494 C.3     1  UNL1        0.0268
      3 C          60.8643   85.4591    9.3086 C.3     1  UNL1        0.0021
      4 C          60.4760   86.7808    8.7150 C.3     1  UNL1        0.0027
      5 C          60.9293   88.0558    9.3621 C.3     1  UNL1        0.0352
      6 C          61.3058   89.4064    9.8951 C.3     1  UNL1        0.0347
      7 C          60.7055   90.4442    8.9937 C.3     1  UNL1        0.1422
      8 O          59.9579   89.7350    7.9036 O.3     1  UNL1       -0.3538
      9 C          60.0962   88.2588    8.1313 C.3     1  UNL1        0.1423
     10 C          61.7708   88.0091   10.6029 C.3     1  UNL1        0.0709
     11 C          62.2240   89.2842   11.2501 C.3     1  UNL1        0.2075
     12 O          63.0655   89.2376   12.4909 O.3     1  UNL1       -0.4733
     13 C          63.4539   87.9160   13.0846 C.ar    1  UNL1        0.1654
     14 C          64.2955   87.8693   14.3254 C.ar    1  UNL1        0.1737
     15 F          64.7487   89.1443   14.9726 F       1  UNL1       -0.2010
     16 C          64.6838   86.5476   14.9190 C.ar    1  UNL1        0.0351
     17 C          64.2305   85.2726   14.2719 C.ar    1  UNL1        0.0319
     18 C          63.3890   85.3192   13.0311 C.ar    1  UNL1        0.1407
     19 F          63.1211   83.8909   12.6594 F       1  UNL1       -0.2043
     20 C          63.0007   86.6409   12.4374 C.ar    1  UNL1        0.0616
     21 O          63.1375   84.6094   10.6371 O.2     1  UNL1       -0.1684
     22 S          62.5475   85.3658   11.7903 S.O2    1  UNL1        0.0093
     23 O          62.4045   85.2471   12.5654 O.2     1  UNL1       -0.1684
     24 C          62.9358   84.0442   12.3839 C.ar    1  UNL1        0.1059
     25 C          64.1870   83.3549   11.9260 C.ar    1  UNL1        0.0192
     26 C          64.5753   82.0334   12.5196 C.ar    1  UNL1        0.0127
     27 C          63.7126   81.4009   13.5711 C.ar    1  UNL1        0.0578
     28 CL         64.1010   80.0792   14.1648 Cl      1  UNL1       -0.0822
     29 C          62.4615   82.0901   14.0290 C.ar    1  UNL1        0.0127
     30 C          62.0731   83.4118   13.4354 C.ar    1  UNL1        0.0192
@<TRIPOS>BOND
     1    21    22    2
     2    22    23    2
     3    22    24    1
     4    24    25   ar
     5    25    26   ar
     6    26    27   ar
     7    27    28    1
     8    27    29   ar
     9    29    30   ar
    10     1    22    1
    11     1     2    1
    12     2     3    1
    13     3     4    1
    14     5     4    1
    15     5     6    1
    16     6     7    1
    17     7     8    1
    18     8     9    1
    19     5    10    1
    20    10    11    1
    21    11    12    1
    22    12    13    1
    23    13    14   ar
    24    14    15    1
    25    14    16   ar
    26    16    17   ar
    27    17    18   ar
    28    18    19    1
    29    18    20   ar
    30    30    24   ar
    31    10     1    1
    32    20    13   ar
    33    20     1    1
    34     9     5    1
@<TRIPOS>MOLECULE
*****
 30 34 0 0 0
SMALL
GASTEIGER

@<TRIPOS>ATOM
      1 C          62.8101   86.1045   11.7423 C.3     1  UNL1        0.1420
      2 C          62.2445   85.4394   10.5226 C.3     1  UNL1        0.0268
      3 C          61.6872   86.2707    9.4054 C.3     1  UNL1        0.0021
      4 C          61.6954   87.7672    9.5078 C.3     1  UNL1        0.0027
      5 C          62.2610   88.4323   10.7275 C.3     1  UNL1        0.0352
      6 C          62.7904   89.2343   11.8792 C.3     1  UNL1        0.0347
      7 C          62.5979   90.6872   11.5597 C.3     1  UNL1        0.1422
      8 O          61.9496   90.7831   10.2104 O.3     1  UNL1       -0.3538
      9 C          61.7414   89.3895    9.6961 C.3     1  UNL1        0.1423
     10 C          62.8183   87.6010   11.8447 C.3     1  UNL1        0.0709
     11 C          63.3839   88.2662   13.0644 C.3     1  UNL1        0.2075
     12 O          63.9413   87.4350   14.1817 O.3     1  UNL1       -0.4733
     13 C          63.9330   85.9384   14.0794 C.ar    1  UNL1        0.1654
     14 C          64.4903   85.1071   15.1966 C.ar    1  UNL1        0.1737
     15 F          65.0559   85.7723   16.4163 F       1  UNL1       -0.2010
     16 C          64.4821   83.6106   15.0942 C.ar    1  UNL1        0.0351
     17 C          63.9165   82.9455   13.8745 C.ar    1  UNL1        0.0319
     18 C          63.3592   83.7768   12.7573 C.ar    1  UNL1        0.1407
     19 F          62.8871   82.8061   11.7156 F       1  UNL1       -0.2043
     20 C          63.3674   85.2733   12.8597 C.ar    1  UNL1        0.0616
     21 O          64.2553   84.2381   11.6148 O.2     1  UNL1       -0.1684
     22 S          62.8018   84.6080   11.6400 S.O2    1  UNL1        0.0093
     23 O          62.0960   84.2384   11.6146 O.2     1  UNL1       -0.1684
     24 C          62.7937   83.1116   11.5376 C.ar    1  UNL1        0.1059
     25 C          62.0172   82.2962   12.5288 C.ar    1  UNL1        0.0192
     26 C          62.0091   80.7998   12.4265 C.ar    1  UNL1        0.0127
     27 C          62.7773   80.1186   11.3330 C.ar    1  UNL1        0.0578
     28 CL         62.7692   78.6221   11.2306 Cl      1  UNL1       -0.0822
     29 C          63.5537   80.9339   10.3418 C.ar    1  UNL1        0.0127
     30 C          63.5619   82.4304   10.4441 C.ar    1  UNL1        0.0192
@<TRIPOS>BOND
     1    21    22    2
     2    22    23    2
     3    22    24    1
     4    24    25   ar
     5    25    26   ar
     6    26    27   ar
     7    27    28    1
     8    27    29   ar
     9    29    30   ar
    10     1    22    1
    11     1     2    1
    12     2     3    1
    13     3     4    1
    14     5     4    1
    15     5     6    1
    16     6     7    1
    17     7     8    1
    18     8     9    1
    19     5    10    1
    20    10    11    1
    21    11    12    1
    22    12    13    1
    23    13    14   ar
    24    14    15    1
    25    14    16   ar
    26    16    17   ar
    27    17    18   ar
    28    18    19    1
    29    18    20   ar
    30    30    24   ar
    31    10     1    1
    32    20    13   ar
    33    20     1    1
    34     9     5    1
