@<TRIPOS>MOLECULE
*****
 32 35 0 0 0
SMALL
GASTEIGER

@<TRIPOS>ATOM
      1 C          65.7738   92.9613   13.4693 C.ar    1  UNL1        0.1385
      2 C          65.9967   92.2861   14.7900 C.ar    1  UNL1        0.0384
      3 C          65.4478   90.9112   15.0314 C.ar    1  UNL1        0.0203
      4 C          64.6760   90.2115   13.9521 C.ar    1  UNL1        0.0601
      5 C          64.4531   90.8868   12.6314 C.ar    1  UNL1        0.0204
      6 C          65.0020   92.2617   12.3900 C.ar    1  UNL1        0.0384
      7 C          63.6591   89.9563   11.7632 C.ar    1  UNL1        0.0234
      8 C          63.3912   88.7060   12.5474 C.ar    1  UNL1        0.1141
      9 N          64.0197   88.8637   13.9002 N.ar    1  UNL1       -0.3255
     10 C          62.6286   87.5082   12.0636 C.2     1  UNL1        0.2649
     11 O          62.8017   86.1834   12.7455 O.2     1  UNL1       -0.2683
     12 N          61.6931   87.6353   10.8981 N.am    1  UNL1       -0.2745
     13 C          61.5200   88.9601   10.2163 C.3     1  UNL1        0.0994
     14 C          60.5844   89.0872    9.0508 C.3     1  UNL1        0.0881
     15 C          59.8219   87.8894    8.5670 C.3     1  UNL1        0.2672
     16 F          58.8865   87.0506    7.7476 F       1  UNL1       -0.2042
     17 F          59.3239   88.9230    7.6006 F       1  UNL1       -0.2042
     18 C          59.9950   86.5646    9.2488 C.3     1  UNL1        0.0881
     19 C          60.9306   86.4375   10.4144 C.3     1  UNL1        0.0994
     20 C          63.9960   87.8513   15.0069 C.3     1  UNL1        0.0857
     21 C          64.7346   86.5548   14.8532 C.3     1  UNL1        0.0245
     22 C          63.2338   88.1356   16.2671 C.3     1  UNL1        0.0245
     23 O          66.3227   94.3363   13.2278 O.3     1  UNL1       -0.4791
     24 N          66.4279   96.0160    9.0544 N.3     1  UNL1       -0.2737
     25 C          65.8634   96.8338   10.1779 C.3     1  UNL1        0.0758
     26 C          65.8283   96.2739   11.5691 C.3     1  UNL1        0.0609
     27 C          66.3578   94.8962   11.8367 C.3     1  UNL1        0.1687
     28 C          66.9223   94.0784   10.7130 C.3     1  UNL1        0.0609
     29 C          66.9574   94.6383    9.3219 C.3     1  UNL1        0.0758
     30 C          67.7791   96.8558    7.0004 C.3     1  UNL1        0.0173
     31 C          66.4630   96.5759    7.6633 C.3     1  UNL1        0.0576
     32 C          65.1818   96.8560    6.9350 C.3     1  UNL1        0.0173
@<TRIPOS>BOND
     1    30    31    1
     2    31    32    1
     3    31    24    1
     4    24    25    1
     5    25    26    1
     6    26    27    1
     7    27    23    1
     8    23     1    1
     9     1     2   ar
    10     2     3   ar
    11     3     4   ar
    12     4     5   ar
    13     5     6   ar
    14     5     7   ar
    15     7     8   ar
    16     8    10    1
    17    10    11    2
    18    10    12   am
    19    12    13    1
    20    13    14    1
    21    14    15    1
    22    15    16    1
    23    15    17    1
    24    15    18    1
    25    18    19    1
    26     8     9   ar
    27     9    20    1
    28    20    21    1
    29    20    22    1
    30    27    28    1
    31    28    29    1
    32    29    24    1
    33     6     1   ar
    34    19    12    1
    35     9     4   ar
@<TRIPOS>MOLECULE
*****
 32 35 0 0 0
SMALL
GASTEIGER

@<TRIPOS>ATOM
      1 C          62.8822   89.9682   13.0883 C.ar    1  UNL1        0.1385
      2 C          62.0698   90.2039   11.8496 C.ar    1  UNL1        0.0384
      3 C          61.8243   89.0789   10.8885 C.ar    1  UNL1        0.0203
      4 C          62.3912   87.7181   11.1660 C.ar    1  UNL1        0.0601
      5 C          63.2035   87.4824   12.4047 C.ar    1  UNL1        0.0204
      6 C          63.4491   88.6075   13.3659 C.ar    1  UNL1        0.0384
      7 C          63.6310   86.0446   12.4121 C.ar    1  UNL1        0.0234
      8 C          63.0828   85.3917   11.1779 C.ar    1  UNL1        0.1141
      9 N          62.3165   86.4259   10.4078 N.ar    1  UNL1       -0.3255
     10 C          63.2683   83.9564   10.7832 C.2     1  UNL1        0.2649
     11 O          63.8506   83.6163    9.4434 O.2     1  UNL1       -0.2683
     12 N          62.8715   82.8614   11.7283 N.am    1  UNL1       -0.2745
     13 C          62.2891   83.2015   13.0682 C.3     1  UNL1        0.0994
     14 C          61.8923   82.1064   14.0133 C.3     1  UNL1        0.0881
     15 C          62.0778   80.6712   13.6186 C.3     1  UNL1        0.2672
     16 F          62.0588   79.1735   13.6990 F       1  UNL1       -0.2042
     17 F          61.4889   80.4912   14.9864 F       1  UNL1       -0.2042
     18 C          62.6602   80.3311   12.2788 C.3     1  UNL1        0.0881
     19 C          63.0570   81.4262   11.3336 C.3     1  UNL1        0.0994
     20 C          61.6012   86.2066    9.1077 C.3     1  UNL1        0.0857
     21 C          62.3368   85.6288    7.9351 C.3     1  UNL1        0.0245
     22 C          60.1502   86.5651    8.9802 C.3     1  UNL1        0.0245
     23 O          63.1278   91.0933   14.0496 O.3     1  UNL1       -0.4791
     24 N          67.3261   92.5182   14.8206 N.3     1  UNL1       -0.2737
     25 C          66.8744   92.2394   13.4176 C.3     1  UNL1        0.0758
     26 C          65.4750   91.7644   13.1606 C.3     1  UNL1        0.0609
     27 C          64.5272   91.5683   14.3066 C.3     1  UNL1        0.1687
     28 C          64.9789   91.8471   15.7096 C.3     1  UNL1        0.0609
     29 C          66.3783   92.3220   15.9665 C.3     1  UNL1        0.0758
     30 C          68.9803   94.0542   16.1067 C.3     1  UNL1        0.0173
     31 C          68.7255   92.9931   15.0775 C.3     1  UNL1        0.0576
     32 C          69.8701   92.4069   14.3054 C.3     1  UNL1        0.0173
@<TRIPOS>BOND
     1    30    31    1
     2    31    32    1
     3    31    24    1
     4    24    25    1
     5    25    26    1
     6    26    27    1
     7    27    23    1
     8    23     1    1
     9     1     2   ar
    10     2     3   ar
    11     3     4   ar
    12     4     5   ar
    13     5     6   ar
    14     5     7   ar
    15     7     8   ar
    16     8    10    1
    17    10    11    2
    18    10    12   am
    19    12    13    1
    20    13    14    1
    21    14    15    1
    22    15    16    1
    23    15    17    1
    24    15    18    1
    25    18    19    1
    26     8     9   ar
    27     9    20    1
    28    20    21    1
    29    20    22    1
    30    27    28    1
    31    28    29    1
    32    29    24    1
    33     6     1   ar
    34    19    12    1
    35     9     4   ar
@<TRIPOS>MOLECULE
*****
 32 35 0 0 0
SMALL
GASTEIGER

@<TRIPOS>ATOM
      1 C          64.5528   90.9922   15.0312 C.ar    1  UNL1        0.1385
      2 C          63.6423   90.8695   16.2169 C.ar    1  UNL1        0.0384
      3 C          63.1649   89.5181   16.6592 C.ar    1  UNL1        0.0203
      4 C          63.5980   88.2893   15.9159 C.ar    1  UNL1        0.0601
      5 C          64.5085   88.4120   14.7302 C.ar    1  UNL1        0.0204
      6 C          64.9859   89.7634   14.2878 C.ar    1  UNL1        0.0384
      7 C          64.7655   87.0331   14.1985 C.ar    1  UNL1        0.0234
      8 C          64.0138   86.0583   15.0557 C.ar    1  UNL1        0.1141
      9 N          63.2923   86.8346   16.1171 N.ar    1  UNL1       -0.3255
     10 C          63.9882   84.5685   14.8819 C.2     1  UNL1        0.2649
     11 O          64.1270   83.6716   16.0762 O.2     1  UNL1       -0.2683
     12 N          63.8239   83.9758   13.5138 N.am    1  UNL1       -0.2745
     13 C          63.6851   84.8727   12.3195 C.3     1  UNL1        0.0994
     14 C          63.5208   84.2799   10.9515 C.3     1  UNL1        0.0881
     15 C          63.4952   82.7902   10.7777 C.3     1  UNL1        0.2672
     16 F          63.4113   81.4504   10.1084 F       1  UNL1       -0.2042
     17 F          63.3273   83.2218    9.3509 F       1  UNL1       -0.2042
     18 C          63.6340   81.8933   11.9720 C.3     1  UNL1        0.0881
     19 C          63.7983   82.4861   13.3401 C.3     1  UNL1        0.0994
     20 C          62.4184   86.2577   17.1911 C.3     1  UNL1        0.0857
     21 C          61.2291   85.4216   16.8217 C.3     1  UNL1        0.0245
     22 C          62.7340   86.5167   18.6344 C.3     1  UNL1        0.0245
     23 O          65.0303   92.3437   14.5888 O.3     1  UNL1       -0.4791
     24 N          67.2093   92.7907   10.6770 N.3     1  UNL1       -0.2737
     25 C          67.9732   92.4788   11.9297 C.3     1  UNL1        0.0758
     26 C          67.2469   92.3298   13.2336 C.3     1  UNL1        0.0609
     27 C          65.7566   92.4927   13.2849 C.3     1  UNL1        0.1687
     28 C          64.9927   92.8046   12.0322 C.3     1  UNL1        0.0609
     29 C          65.7190   92.9536   10.7283 C.3     1  UNL1        0.0758
     30 C          67.8315   94.2201    8.5986 C.3     1  UNL1        0.0173
     31 C          67.9356   92.9397    9.3731 C.3     1  UNL1        0.0576
     32 C          68.7662   91.8084    8.8437 C.3     1  UNL1        0.0173
@<TRIPOS>BOND
     1    30    31    1
     2    31    32    1
     3    31    24    1
     4    24    25    1
     5    25    26    1
     6    26    27    1
     7    27    23    1
     8    23     1    1
     9     1     2   ar
    10     2     3   ar
    11     3     4   ar
    12     4     5   ar
    13     5     6   ar
    14     5     7   ar
    15     7     8   ar
    16     8    10    1
    17    10    11    2
    18    10    12   am
    19    12    13    1
    20    13    14    1
    21    14    15    1
    22    15    16    1
    23    15    17    1
    24    15    18    1
    25    18    19    1
    26     8     9   ar
    27     9    20    1
    28    20    21    1
    29    20    22    1
    30    27    28    1
    31    28    29    1
    32    29    24    1
    33     6     1   ar
    34    19    12    1
    35     9     4   ar
@<TRIPOS>MOLECULE
*****
 32 35 0 0 0
SMALL
GASTEIGER

@<TRIPOS>ATOM
      1 C          62.9134   88.3263   12.2078 C.ar    1  UNL1        0.1385
      2 C          63.5745   88.1023   13.5354 C.ar    1  UNL1        0.0384
      3 C          64.4553   89.1646   14.1234 C.ar    1  UNL1        0.0203
      4 C          64.6749   90.4509   13.3837 C.ar    1  UNL1        0.0601
      5 C          64.0138   90.6749   12.0560 C.ar    1  UNL1        0.0204
      6 C          63.1330   89.6126   11.4681 C.ar    1  UNL1        0.0384
      7 C          64.4137   92.0337   11.5625 C.ar    1  UNL1        0.0234
      8 C          65.3220   92.6496   12.5851 C.ar    1  UNL1        0.1141
      9 N          65.4835   91.6713   13.7107 N.ar    1  UNL1       -0.3255
     10 C          65.9573   94.0056   12.4975 C.2     1  UNL1        0.2649
     11 O          66.1646   94.8185   13.7410 O.2     1  UNL1       -0.2683
     12 N          66.3853   94.5487   11.1664 N.am    1  UNL1       -0.2745
     13 C          66.1780   93.7359    9.9229 C.3     1  UNL1        0.0994
     14 C          66.6060   94.2790    8.5918 C.3     1  UNL1        0.0881
     15 C          67.2414   95.6350    8.5042 C.3     1  UNL1        0.2672
     16 F          67.8819   96.8559    7.9134 F       1  UNL1       -0.2042
     17 F          67.2565   95.2461    7.0555 F       1  UNL1       -0.2042
     18 C          67.4486   96.4479    9.7477 C.3     1  UNL1        0.0881
     19 C          67.0206   95.9047   11.0788 C.3     1  UNL1        0.0994
     20 C          66.3086   91.8773   14.9463 C.3     1  UNL1        0.0857
     21 C          65.6584   92.3527   16.2117 C.3     1  UNL1        0.0245
     22 C          67.7839   91.6078   14.9165 C.3     1  UNL1        0.0245
     23 O          62.0326   87.2639   11.6198 O.3     1  UNL1       -0.4791
     24 N          63.0181   82.9191   12.2532 N.3     1  UNL1       -0.2737
     25 C          62.6980   83.7946   13.4284 C.3     1  UNL1        0.0758
     26 C          62.3695   85.2429   13.2173 C.3     1  UNL1        0.0609
     27 C          62.3611   85.8157   11.8309 C.3     1  UNL1        0.1687
     28 C          62.6812   84.9401   10.6558 C.3     1  UNL1        0.0609
     29 C          63.0096   83.4919   10.8669 C.3     1  UNL1        0.0758
     30 C          63.9175   81.0146   13.7743 C.3     1  UNL1        0.0173
     31 C          63.3465   81.4709   12.4644 C.3     1  UNL1        0.0576
     32 C          63.1041   80.4789   11.3656 C.3     1  UNL1        0.0173
@<TRIPOS>BOND
     1    30    31    1
     2    31    32    1
     3    31    24    1
     4    24    25    1
     5    25    26    1
     6    26    27    1
     7    27    23    1
     8    23     1    1
     9     1     2   ar
    10     2     3   ar
    11     3     4   ar
    12     4     5   ar
    13     5     6   ar
    14     5     7   ar
    15     7     8   ar
    16     8    10    1
    17    10    11    2
    18    10    12   am
    19    12    13    1
    20    13    14    1
    21    14    15    1
    22    15    16    1
    23    15    17    1
    24    15    18    1
    25    18    19    1
    26     8     9   ar
    27     9    20    1
    28    20    21    1
    29    20    22    1
    30    27    28    1
    31    28    29    1
    32    29    24    1
    33     6     1   ar
    34    19    12    1
    35     9     4   ar
@<TRIPOS>MOLECULE
*****
 32 35 0 0 0
SMALL
GASTEIGER

@<TRIPOS>ATOM
      1 C          59.3899   88.8894    7.6230 C.ar    1  UNL1        0.1385
      2 C          59.5454   87.3985    7.5672 C.ar    1  UNL1        0.0384
      3 C          60.4137   86.6970    8.5692 C.ar    1  UNL1        0.0203
      4 C          61.1264   87.4864    9.6270 C.ar    1  UNL1        0.0601
      5 C          60.9709   88.9772    9.6828 C.ar    1  UNL1        0.0204
      6 C          60.1027   89.6787    8.6808 C.ar    1  UNL1        0.0384
      7 C          61.7910   89.4862   10.8310 C.ar    1  UNL1        0.0234
      8 C          62.4533   88.3098   11.4849 C.ar    1  UNL1        0.1141
      9 N          62.0426   87.0739   10.7408 N.ar    1  UNL1       -0.3255
     10 C          63.3661   88.3606   12.6742 C.2     1  UNL1        0.2649
     11 O          63.5496   87.1433   13.5313 O.2     1  UNL1       -0.2683
     12 N          64.0954   89.6285   13.0063 N.am    1  UNL1       -0.2745
     13 C          63.9120   90.8458   12.1492 C.3     1  UNL1        0.0994
     14 C          64.6413   92.1138   12.4813 C.3     1  UNL1        0.0881
     15 C          65.5541   92.1645   13.6705 C.3     1  UNL1        0.2672
     16 F          66.5196   92.7030   14.6843 F       1  UNL1       -0.2042
     17 F          65.7059   93.5688   13.1655 F       1  UNL1       -0.2042
     18 C          65.7376   90.9473   14.5276 C.3     1  UNL1        0.0881
     19 C          65.0082   89.6793   14.1955 C.3     1  UNL1        0.0994
     20 C          62.4726   85.6717   11.0552 C.3     1  UNL1        0.0857
     21 C          62.1774   85.0808   12.4019 C.3     1  UNL1        0.0245
     22 C          63.1978   84.8603   10.0228 C.3     1  UNL1        0.0245
     23 O          58.5216   89.5909    6.6210 O.3     1  UNL1       -0.4791
     24 N          60.3728   92.3209    3.5599 N.3     1  UNL1       -0.2737
     25 C          61.2297   91.3446    4.3099 C.3     1  UNL1        0.0758
     26 C          60.6126   90.4346    5.3303 C.3     1  UNL1        0.0609
     27 C          59.1387   90.5009    5.6006 C.3     1  UNL1        0.1687
     28 C          58.2818   91.4772    4.8505 C.3     1  UNL1        0.0609
     29 C          58.8988   92.3872    3.8302 C.3     1  UNL1        0.0758
     30 C          60.1681   94.3144    1.9063 C.3     1  UNL1        0.0173
     31 C          60.9898   93.2309    2.5395 C.3     1  UNL1        0.0576
     32 C          62.4286   93.0574    2.1523 C.3     1  UNL1        0.0173
@<TRIPOS>BOND
     1    30    31    1
     2    31    32    1
     3    31    24    1
     4    24    25    1
     5    25    26    1
     6    26    27    1
     7    27    23    1
     8    23     1    1
     9     1     2   ar
    10     2     3   ar
    11     3     4   ar
    12     4     5   ar
    13     5     6   ar
    14     5     7   ar
    15     7     8   ar
    16     8    10    1
    17    10    11    2
    18    10    12   am
    19    12    13    1
    20    13    14    1
    21    14    15    1
    22    15    16    1
    23    15    17    1
    24    15    18    1
    25    18    19    1
    26     8     9   ar
    27     9    20    1
    28    20    21    1
    29    20    22    1
    30    27    28    1
    31    28    29    1
    32    29    24    1
    33     6     1   ar
    34    19    12    1
    35     9     4   ar
@<TRIPOS>MOLECULE
*****
 32 35 0 0 0
SMALL
GASTEIGER

@<TRIPOS>ATOM
      1 C          63.5869   88.5739   13.1031 C.ar    1  UNL1        0.1385
      2 C          64.4311   88.5021   14.3409 C.ar    1  UNL1        0.0384
      3 C          65.3053   89.6602   14.7206 C.ar    1  UNL1        0.0203
      4 C          65.3354   90.8903   13.8627 C.ar    1  UNL1        0.0601
      5 C          64.4911   90.9621   12.6249 C.ar    1  UNL1        0.0204
      6 C          63.6169   89.8040   12.2452 C.ar    1  UNL1        0.0384
      7 C          64.7268   92.2957   11.9799 C.ar    1  UNL1        0.0234
      8 C          65.7167   93.0480   12.8190 C.ar    1  UNL1        0.1141
      9 N          66.0929   92.1794   13.9827 N.ar    1  UNL1       -0.3255
     10 C          66.2388   94.4269   12.5429 C.2     1  UNL1        0.2649
     11 O          66.4433   95.3917   13.6731 O.2     1  UNL1       -0.2683
     12 N          66.5565   94.8409   11.1366 N.am    1  UNL1       -0.2745
     13 C          66.3520   93.8762   10.0064 C.3     1  UNL1        0.0994
     14 C          66.6697   94.2902    8.6002 C.3     1  UNL1        0.0881
     15 C          67.1918   95.6691    8.3240 C.3     1  UNL1        0.2672
     16 F          67.7047   96.8560    7.5637 F       1  UNL1       -0.2042
     17 F          67.1654   95.1165    6.9297 F       1  UNL1       -0.2042
     18 C          67.3962   96.6339    9.4543 C.3     1  UNL1        0.0881
     19 C          67.0785   96.2198   10.8606 C.3     1  UNL1        0.0994
     20 C          67.0571   92.5372   15.0745 C.3     1  UNL1        0.0857
     21 C          68.5236   92.6392   14.7763 C.3     1  UNL1        0.0245
     22 C          66.5549   92.7928   16.4646 C.3     1  UNL1        0.0245
     23 O          62.7125   87.4157   12.7233 O.3     1  UNL1       -0.4791
     24 N          60.2684   87.5845    8.9487 N.3     1  UNL1       -0.2737
     25 C          61.4923   86.7196    9.0116 C.3     1  UNL1        0.0758
     26 C          62.3071   86.6633   10.2699 C.3     1  UNL1        0.0609
     27 C          61.8979   87.4720   11.4651 C.3     1  UNL1        0.1687
     28 C          60.6739   88.3369   11.4021 C.3     1  UNL1        0.0609
     29 C          59.8592   88.3932   10.1439 C.3     1  UNL1        0.0758
     30 C          58.8297   86.3908    7.1445 C.3     1  UNL1        0.0173
     31 C          59.4538   87.6408    7.6905 C.3     1  UNL1        0.0576
     32 C          59.2631   88.9471    6.9782 C.3     1  UNL1        0.0173
@<TRIPOS>BOND
     1    30    31    1
     2    31    32    1
     3    31    24    1
     4    24    25    1
     5    25    26    1
     6    26    27    1
     7    27    23    1
     8    23     1    1
     9     1     2   ar
    10     2     3   ar
    11     3     4   ar
    12     4     5   ar
    13     5     6   ar
    14     5     7   ar
    15     7     8   ar
    16     8    10    1
    17    10    11    2
    18    10    12   am
    19    12    13    1
    20    13    14    1
    21    14    15    1
    22    15    16    1
    23    15    17    1
    24    15    18    1
    25    18    19    1
    26     8     9   ar
    27     9    20    1
    28    20    21    1
    29    20    22    1
    30    27    28    1
    31    28    29    1
    32    29    24    1
    33     6     1   ar
    34    19    12    1
    35     9     4   ar
@<TRIPOS>MOLECULE
*****
 32 35 0 0 0
SMALL
GASTEIGER

@<TRIPOS>ATOM
      1 C          45.3862   74.1675   18.5196 C.ar    1  UNL1        0.1385
      2 C          46.7976   74.6157   18.7578 C.ar    1  UNL1        0.0384
      3 C          47.1233   76.0794   18.7960 C.ar    1  UNL1        0.0203
      4 C          46.0376   77.0949   18.5959 C.ar    1  UNL1        0.0601
      5 C          44.6261   76.6466   18.3577 C.ar    1  UNL1        0.0204
      6 C          44.3004   75.1829   18.3195 C.ar    1  UNL1        0.0384
      7 C          43.7727   77.8694   18.1952 C.ar    1  UNL1        0.0234
      8 C          44.6567   79.0734   18.3330 C.ar    1  UNL1        0.1141
      9 N          46.0565   78.5947   18.5807 N.ar    1  UNL1       -0.3255
     10 C          44.2178   80.5048   18.2396 C.2     1  UNL1        0.2649
     11 O          43.8519   81.2597   19.4830 O.2     1  UNL1       -0.2683
     12 N          44.1449   81.1811   16.9027 N.am    1  UNL1       -0.2745
     13 C          44.5109   80.4262   15.6593 C.3     1  UNL1        0.0994
     14 C          44.4380   81.1025   14.3224 C.3     1  UNL1        0.0881
     15 C          43.9992   82.5339   14.2290 C.3     1  UNL1        0.2672
     16 F          43.6447   83.8633   13.6316 F       1  UNL1       -0.2042
     17 F          44.2420   82.2406   12.7781 F       1  UNL1       -0.2042
     18 C          43.6332   83.2888   15.4724 C.3     1  UNL1        0.0881
     19 C          43.7061   82.6124   16.8093 C.3     1  UNL1        0.0994
     20 C          47.2633   79.4633   18.7784 C.3     1  UNL1        0.0857
     21 C          47.5934   79.9891   20.1439 C.3     1  UNL1        0.0245
     22 C          48.1400   79.8062   17.6106 C.3     1  UNL1        0.0245
     23 O          45.0604   72.7038   18.4814 O.3     1  UNL1       -0.4791
     24 N          44.9996   70.5140   14.5506 N.3     1  UNL1       -0.2737
     25 C          44.1630   71.7450   14.7363 C.3     1  UNL1        0.0758
     26 C          44.1832   72.4750   16.0466 C.3     1  UNL1        0.0609
     27 C          45.0401   71.9739   17.1711 C.3     1  UNL1        0.1687
     28 C          45.8768   70.7428   16.9854 C.3     1  UNL1        0.0609
     29 C          45.8566   70.0129   15.6751 C.3     1  UNL1        0.0758
     30 C          46.2234   69.1156   12.7349 C.3     1  UNL1        0.0173
     31 C          44.9794   69.7841   13.2404 C.3     1  UNL1        0.0576
     32 C          43.7150   69.7226   12.4355 C.3     1  UNL1        0.0173
@<TRIPOS>BOND
     1    30    31    1
     2    31    32    1
     3    31    24    1
     4    24    25    1
     5    25    26    1
     6    26    27    1
     7    27    23    1
     8    23     1    1
     9     1     2   ar
    10     2     3   ar
    11     3     4   ar
    12     4     5   ar
    13     5     6   ar
    14     5     7   ar
    15     7     8   ar
    16     8    10    1
    17    10    11    2
    18    10    12   am
    19    12    13    1
    20    13    14    1
    21    14    15    1
    22    15    16    1
    23    15    17    1
    24    15    18    1
    25    18    19    1
    26     8     9   ar
    27     9    20    1
    28    20    21    1
    29    20    22    1
    30    27    28    1
    31    28    29    1
    32    29    24    1
    33     6     1   ar
    34    19    12    1
    35     9     4   ar
@<TRIPOS>MOLECULE
*****
 32 35 0 0 0
SMALL
GASTEIGER

@<TRIPOS>ATOM
      1 C          62.9029   88.4649   12.7002 C.ar    1  UNL1        0.1385
      2 C          63.8297   88.2113   13.8520 C.ar    1  UNL1        0.0384
      3 C          64.8282   89.2556   14.2550 C.ar    1  UNL1        0.0203
      4 C          64.8999   90.5534   13.5063 C.ar    1  UNL1        0.0601
      5 C          63.9731   90.8070   12.3546 C.ar    1  UNL1        0.0204
      6 C          62.9745   89.7627   11.9515 C.ar    1  UNL1        0.0384
      7 C          64.2743   92.1713   11.8089 C.ar    1  UNL1        0.0234
      8 C          65.3874   92.7610   12.6234 C.ar    1  UNL1        0.1141
      9 N          65.7741   91.7610   13.6725 N.ar    1  UNL1       -0.3255
     10 C          66.0053   94.1132   12.4239 C.2     1  UNL1        0.2649
     11 O          66.1869   95.0348   13.5934 O.2     1  UNL1       -0.2683
     12 N          66.4415   94.5438   11.0549 N.am    1  UNL1       -0.2745
     13 C          66.2599   93.6222    9.8854 C.3     1  UNL1        0.0994
     14 C          66.6961   94.0528    8.5164 C.3     1  UNL1        0.0881
     15 C          67.3140   95.4050    8.3168 C.3     1  UNL1        0.2672
     16 F          67.9449   96.5787    7.6279 F       1  UNL1       -0.2042
     17 F          67.3515   94.8910    6.9080 F       1  UNL1       -0.2042
     18 C          67.4957   96.3266    9.4863 C.3     1  UNL1        0.0881
     19 C          67.0594   95.8959   10.8553 C.3     1  UNL1        0.0994
     20 C          66.8465   91.9377   14.7063 C.3     1  UNL1        0.0857
     21 C          66.4879   92.3996   16.0876 C.3     1  UNL1        0.0245
     22 C          68.2775   91.6524   14.3587 C.3     1  UNL1        0.0245
     23 O          61.9043   87.4207   12.2971 O.3     1  UNL1       -0.4791
     24 N          62.1429   85.5349    8.2183 N.3     1  UNL1       -0.2737
     25 C          61.3577   86.7976    8.4160 C.3     1  UNL1        0.0758
     26 C          61.2781   87.4262    9.7756 C.3     1  UNL1        0.0609
     27 C          61.9838   86.7921   10.9375 C.3     1  UNL1        0.1687
     28 C          62.7690   85.5294   10.7398 C.3     1  UNL1        0.0609
     29 C          62.8485   84.9008    9.3802 C.3     1  UNL1        0.0758
     30 C          63.5415   84.8156    6.1503 C.3     1  UNL1        0.0173
     31 C          62.2224   84.9064    6.8587 C.3     1  UNL1        0.0576
     32 C          60.9828   84.3685    6.2074 C.3     1  UNL1        0.0173
@<TRIPOS>BOND
     1    30    31    1
     2    31    32    1
     3    31    24    1
     4    24    25    1
     5    25    26    1
     6    26    27    1
     7    27    23    1
     8    23     1    1
     9     1     2   ar
    10     2     3   ar
    11     3     4   ar
    12     4     5   ar
    13     5     6   ar
    14     5     7   ar
    15     7     8   ar
    16     8    10    1
    17    10    11    2
    18    10    12   am
    19    12    13    1
    20    13    14    1
    21    14    15    1
    22    15    16    1
    23    15    17    1
    24    15    18    1
    25    18    19    1
    26     8     9   ar
    27     9    20    1
    28    20    21    1
    29    20    22    1
    30    27    28    1
    31    28    29    1
    32    29    24    1
    33     6     1   ar
    34    19    12    1
    35     9     4   ar
@<TRIPOS>MOLECULE
*****
 32 35 0 0 0
SMALL
GASTEIGER

@<TRIPOS>ATOM
      1 C          46.0281   72.4529   18.7400 C.ar    1  UNL1        0.1385
      2 C          44.9792   72.6198   19.7992 C.ar    1  UNL1        0.0384
      3 C          44.6369   73.9892   20.3065 C.ar    1  UNL1        0.0203
      4 C          45.3435   75.1918   19.7547 C.ar    1  UNL1        0.0601
      5 C          46.3923   75.0249   18.6955 C.ar    1  UNL1        0.0204
      6 C          46.7346   73.6555   18.1881 C.ar    1  UNL1        0.0384
      7 C          46.9164   76.3857   18.3437 C.ar    1  UNL1        0.0234
      8 C          46.1915   77.3935   19.1856 C.ar    1  UNL1        0.1141
      9 N          45.2193   76.6557   20.0576 N.ar    1  UNL1       -0.3255
     10 C          46.4018   78.8785   19.1599 C.2     1  UNL1        0.2649
     11 O          47.2419   79.5354   20.2148 O.2     1  UNL1       -0.2683
     12 N          45.7720   79.7066   18.0793 N.am    1  UNL1       -0.2745
     13 C          44.9319   79.0497   17.0245 C.3     1  UNL1        0.0994
     14 C          44.3021   79.8778   15.9439 C.3     1  UNL1        0.0881
     15 C          44.5124   81.3628   15.9182 C.3     1  UNL1        0.2672
     16 F          44.4198   82.7920   15.4724 F       1  UNL1       -0.2042
     17 F          43.6401   81.2023   14.7085 F       1  UNL1       -0.2042
     18 C          45.3525   82.0197   16.9731 C.3     1  UNL1        0.0881
     19 C          45.9823   81.1915   18.0537 C.3     1  UNL1        0.0994
     20 C          44.2867   77.2732   21.0571 C.3     1  UNL1        0.0857
     21 C          43.8966   76.5118   22.2892 C.3     1  UNL1        0.0245
     22 C          43.7442   78.6521   20.8244 C.3     1  UNL1        0.0245
     23 O          46.3704   71.0834   18.2326 O.3     1  UNL1       -0.4791
     24 N          45.0730   69.8210   14.1127 N.3     1  UNL1       -0.2737
     25 C          46.4863   69.5882   14.5582 C.3     1  UNL1        0.0758
     26 C          46.9188   70.0090   15.9315 C.3     1  UNL1        0.0609
     27 C          45.9380   70.6626   16.8593 C.3     1  UNL1        0.1687
     28 C          44.5247   70.8955   16.4138 C.3     1  UNL1        0.0609
     29 C          44.0922   70.4747   15.0405 C.3     1  UNL1        0.0758
     30 C          45.2041   68.1533   12.1249 C.3     1  UNL1        0.0173
     31 C          44.6406   69.4002   12.7395 C.3     1  UNL1        0.0576
     32 C          43.6445   70.2263   11.9808 C.3     1  UNL1        0.0173
@<TRIPOS>BOND
     1    30    31    1
     2    31    32    1
     3    31    24    1
     4    24    25    1
     5    25    26    1
     6    26    27    1
     7    27    23    1
     8    23     1    1
     9     1     2   ar
    10     2     3   ar
    11     3     4   ar
    12     4     5   ar
    13     5     6   ar
    14     5     7   ar
    15     7     8   ar
    16     8    10    1
    17    10    11    2
    18    10    12   am
    19    12    13    1
    20    13    14    1
    21    14    15    1
    22    15    16    1
    23    15    17    1
    24    15    18    1
    25    18    19    1
    26     8     9   ar
    27     9    20    1
    28    20    21    1
    29    20    22    1
    30    27    28    1
    31    28    29    1
    32    29    24    1
    33     6     1   ar
    34    19    12    1
    35     9     4   ar
