@<TRIPOS>MOLECULE
*****
 48 54 0 0 0
SMALL
GASTEIGER

@<TRIPOS>ATOM
      1 C          59.9908   88.7775    7.2673 C.2     1  UNL1        0.0633
      2 N          60.2549   87.3333    6.9595 N.2     1  UNL1       -0.2432
      3 C          60.8688   86.7049    8.1754 C.ar    1  UNL1        0.1064
      4 S          61.4113   85.4240    8.7365 S.2     1  UNL1       -0.0722
      5 C          61.8619   85.6882   10.1426 C.ar    1  UNL1        0.0160
      6 C          61.5979   87.1323   10.4505 C.ar    1  UNL1        0.0007
      7 C          60.9840   87.7607    9.2347 C.ar    1  UNL1        0.0071
      8 C          60.4415   89.0416    8.6735 C.3     1  UNL1        0.0659
      9 C          60.5411   92.5068    3.6911 C.3     1  UNL1        0.0310
     10 C          59.6581   91.6459    4.5450 C.ar    1  UNL1       -0.0221
     11 C          58.1671   91.7888    4.4646 C.ar    1  UNL1       -0.0085
     12 C          57.2839   90.9279    5.3185 C.ar    1  UNL1       -0.0221
     13 C          55.7929   91.0708    5.2381 C.3     1  UNL1        0.0310
     14 C          57.8919   89.9242    6.2527 C.ar    1  UNL1       -0.0031
     15 C          59.3829   89.7812    6.3331 C.ar    1  UNL1        0.0133
     16 C          60.2660   90.6421    5.4792 C.ar    1  UNL1       -0.0031
     17 C          62.4699   84.6844   11.0769 C.3     1  UNL1        0.0934
     18 C          63.2993   84.1397    9.9520 C.3     1  UNL1        0.0140
     19 C          61.6405   85.2291   12.2018 C.3     1  UNL1        0.0140
     20 C          63.0778   83.6806   12.0112 C.2     1  UNL1        0.2289
     21 O          63.0121   82.2177   11.6865 O.2     1  UNL1       -0.2745
     22 N          63.7516   84.1398   13.2703 N.am    1  UNL1       -0.2825
     23 C          63.8943   85.5619   13.7257 C.3     1  UNL1        0.0754
     24 C          64.6317   85.5585   15.0318 C.3     1  UNL1        0.0215
     25 C          64.9448   84.1344   15.3838 C.3     1  UNL1        0.0215
     26 C          64.4008   83.2576   14.2951 C.3     1  UNL1        0.0754
     27 C          63.6633   83.2609   12.9888 C.3     1  UNL1        0.0215
     28 C          63.3503   84.6851   12.6370 C.3     1  UNL1        0.0215
     29 C          60.3633   90.3559    9.3922 C.3     1  UNL1        0.0277
     30 C          60.3137   90.3892   10.8911 C.3     1  UNL1        0.0729
     31 N          61.5848   90.4873   11.6815 N.3     1  UNL1       -0.2703
     32 C          62.7670   91.2150   11.1134 C.3     1  UNL1        0.0897
     33 C          64.0380   91.3131   11.9038 C.3     1  UNL1        0.0897
     34 N          64.1269   90.6835   13.2624 N.3     1  UNL1       -0.2682
     35 C          62.9447   89.9558   13.8306 C.3     1  UNL1        0.0897
     36 C          61.6736   89.8577   13.0401 C.3     1  UNL1        0.0897
     37 C          65.3980   90.7816   14.0528 C.3     1  UNL1        0.1032
     38 C          66.1558   92.0753   14.0968 C.3     1  UNL1        0.1423
     39 O          65.7783   93.1322   15.0919 O.3     1  UNL1       -0.3816
     40 H          65.0304   92.8213   15.6258 H       1  UNL1        0.2105
     41 C          67.2913   92.3121   13.1456 C.3     1  UNL1        0.1032
     42 N          67.0564   93.0653   11.8700 N.3     1  UNL1       -0.2682
     43 C          67.6602   92.5750   10.5873 C.3     1  UNL1        0.0895
     44 C          67.4253   93.3283    9.3116 C.3     1  UNL1        0.0862
     45 N          66.5865   94.5718    9.3185 N.3     1  UNL1       -0.2951
     46 C          65.9827   95.0622   10.6010 C.3     1  UNL1        0.0862
     47 C          66.2176   94.3089   11.8768 C.3     1  UNL1        0.0895
     48 H          65.8141   94.4096    8.6725 H       1  UNL1        0.1233
@<TRIPOS>BOND
     1     9    10    1
     2    10    11   ar
     3    11    12   ar
     4    12    13    1
     5    12    14   ar
     6    14    15   ar
     7    15     1    1
     8     1     2    2
     9     2     3    1
    10     3     4   ar
    11     4     5   ar
    12     5    17    1
    13    17    18    1
    14    17    19    1
    15    17    20    1
    16    20    21    2
    17    20    22   am
    18    22    23    1
    19    23    24    1
    20    24    25    1
    21    25    26    1
    22    26    27    1
    23    27    28    1
    24     5     6   ar
    25     6     7   ar
    26     7     8    1
    27     8    29    1
    28    29    30    1
    29    30    31    1
    30    31    32    1
    31    32    33    1
    32    33    34    1
    33    34    37    1
    34    37    38    1
    35    38    39    1
    36    38    41    1
    37    41    42    1
    38    42    43    1
    39    43    44    1
    40    44    45    1
    41    45    46    1
    42    46    47    1
    43    34    35    1
    44    35    36    1
    45    15    16   ar
    46    16    10   ar
    47     8     1    1
    48    36    31    1
    49     7     3   ar
    50    47    42    1
    51    26    22    1
    52    28    23    1
    53    39    40    1
    54    45    48    1
@<TRIPOS>MOLECULE
*****
 48 54 0 0 0
SMALL
GASTEIGER

@<TRIPOS>ATOM
      1 C          60.2815   88.4953    7.7336 C.2     1  UNL1        0.0633
      2 N          60.6695   87.0727    7.4584 N.2     1  UNL1       -0.2432
      3 C          61.3285   86.5254    8.6898 C.ar    1  UNL1        0.1064
      4 S          61.9756   85.3080    9.2806 S.2     1  UNL1       -0.0722
      5 C          62.3948   85.6400   10.6821 C.ar    1  UNL1        0.0160
      6 C          62.0068   87.0625   10.9574 C.ar    1  UNL1        0.0007
      7 C          61.3478   87.6098    9.7260 C.ar    1  UNL1        0.0071
      8 C          60.7007   88.8272    9.1352 C.3     1  UNL1        0.0659
      9 C          55.9122   90.4082    5.6719 C.3     1  UNL1        0.0310
     10 C          57.4102   90.3795    5.7448 C.ar    1  UNL1       -0.0221
     11 C          58.2215   91.2785    4.8597 C.ar    1  UNL1       -0.0085
     12 C          59.7195   91.2498    4.9325 C.ar    1  UNL1       -0.0221
     13 C          60.5308   92.1490    4.0474 C.3     1  UNL1        0.0310
     14 C          60.4061   90.3221    5.8905 C.ar    1  UNL1       -0.0031
     15 C          59.5948   89.4230    6.7757 C.ar    1  UNL1        0.0133
     16 C          58.0969   89.4517    6.7028 C.ar    1  UNL1       -0.0031
     17 C          63.0815   84.7122   11.6401 C.3     1  UNL1        0.0934
     18 C          62.5153   85.4851   12.7943 C.3     1  UNL1        0.0140
     19 C          63.6476   83.9393   10.4859 C.3     1  UNL1        0.0140
     20 C          63.7681   83.7845   12.5981 C.2     1  UNL1        0.2289
     21 O          65.0581   84.1942   13.2446 O.2     1  UNL1       -0.2745
     22 N          63.1648   82.4469   12.9096 N.am    1  UNL1       -0.2825
     23 C          61.8869   81.9027   12.3432 C.3     1  UNL1        0.0754
     24 C          61.6657   80.5382   12.9257 C.3     1  UNL1        0.0215
     25 C          62.8069   80.2391   13.8521 C.3     1  UNL1        0.0215
     26 C          63.7334   81.4188   13.8422 C.3     1  UNL1        0.0754
     27 C          63.9546   82.7833   13.2597 C.3     1  UNL1        0.0215
     28 C          62.8134   83.0823   12.3333 C.3     1  UNL1        0.0215
     29 C          60.5068   90.1452    9.8247 C.3     1  UNL1        0.0277
     30 C          60.6576   90.2418   11.3140 C.3     1  UNL1        0.0729
     31 N          61.9985   90.5449   11.9140 N.3     1  UNL1       -0.2703
     32 C          63.0317   91.2770   11.1100 C.3     1  UNL1        0.0897
     33 C          64.3727   91.5801   11.7100 C.3     1  UNL1        0.0897
     34 N          64.6804   91.1511   13.1140 N.3     1  UNL1       -0.2682
     35 C          63.6472   90.4189   13.9181 C.3     1  UNL1        0.0897
     36 C          62.3062   90.1158   13.3181 C.3     1  UNL1        0.0897
     37 C          66.0214   91.4542   13.7140 C.3     1  UNL1        0.1032
     38 C          66.9382   92.4346   13.0446 C.3     1  UNL1        0.1423
     39 O          68.3650   92.0611   12.7714 O.3     1  UNL1       -0.3816
     40 H          68.5293   91.1589   13.0876 H       1  UNL1        0.2105
     41 C          66.4283   93.7885   12.6484 C.3     1  UNL1        0.1032
     42 N          66.7582   94.3481   11.2964 N.3     1  UNL1       -0.2682
     43 C          67.2714   93.4437   10.2152 C.3     1  UNL1        0.0895
     44 C          67.6014   94.0033    8.8632 C.3     1  UNL1        0.0862
     45 N          67.4182   95.4673    8.5924 N.3     1  UNL1       -0.2951
     46 C          66.9051   96.3716    9.6735 C.3     1  UNL1        0.0862
     47 C          66.5751   95.8120   11.0255 C.3     1  UNL1        0.0895
     48 H          66.7666   95.5429    7.8113 H       1  UNL1        0.1233
@<TRIPOS>BOND
     1     9    10    1
     2    10    11   ar
     3    11    12   ar
     4    12    13    1
     5    12    14   ar
     6    14    15   ar
     7    15     1    1
     8     1     2    2
     9     2     3    1
    10     3     4   ar
    11     4     5   ar
    12     5    17    1
    13    17    18    1
    14    17    19    1
    15    17    20    1
    16    20    21    2
    17    20    22   am
    18    22    23    1
    19    23    24    1
    20    24    25    1
    21    25    26    1
    22    26    27    1
    23    27    28    1
    24     5     6   ar
    25     6     7   ar
    26     7     8    1
    27     8    29    1
    28    29    30    1
    29    30    31    1
    30    31    32    1
    31    32    33    1
    32    33    34    1
    33    34    37    1
    34    37    38    1
    35    38    39    1
    36    38    41    1
    37    41    42    1
    38    42    43    1
    39    43    44    1
    40    44    45    1
    41    45    46    1
    42    46    47    1
    43    34    35    1
    44    35    36    1
    45    15    16   ar
    46    16    10   ar
    47     8     1    1
    48    36    31    1
    49     7     3   ar
    50    47    42    1
    51    26    22    1
    52    28    23    1
    53    39    40    1
    54    45    48    1
@<TRIPOS>MOLECULE
*****
 48 54 0 0 0
SMALL
GASTEIGER

@<TRIPOS>ATOM
      1 C          63.2219   84.7690   13.0951 C.2     1  UNL1        0.0633
      2 N          64.1200   85.2440   14.1987 N.2     1  UNL1       -0.2432
      3 C          64.2476   86.7341   14.0836 C.ar    1  UNL1        0.1064
      4 S          64.8815   87.9486   14.6946 S.2     1  UNL1       -0.0722
      5 C          64.4540   89.1451   13.8974 C.ar    1  UNL1        0.0160
      6 C          63.5559   88.6702   12.7938 C.ar    1  UNL1        0.0007
      7 C          63.4284   87.1801   12.9089 C.ar    1  UNL1        0.0071
      8 C          62.7945   85.9657   12.2979 C.3     1  UNL1        0.0659
      9 C          60.6355   80.4904   14.5108 C.3     1  UNL1        0.0310
     10 C          61.5284   81.2078   13.5423 C.ar    1  UNL1       -0.0221
     11 C          62.0210   80.5033   12.3130 C.ar    1  UNL1       -0.0085
     12 C          62.9139   81.2208   11.3445 C.ar    1  UNL1       -0.0221
     13 C          63.4065   80.5162   10.1152 C.3     1  UNL1        0.0310
     14 C          63.3142   82.6426   11.6051 C.ar    1  UNL1       -0.0031
     15 C          62.8216   83.3472   12.8344 C.ar    1  UNL1        0.0133
     16 C          61.9287   82.6298   13.8029 C.ar    1  UNL1       -0.0031
     17 C          64.8543   90.5670   14.1581 C.3     1  UNL1        0.0934
     18 C          63.5348   91.0369   13.6214 C.3     1  UNL1        0.0140
     19 C          66.1739   90.0972   14.6948 C.3     1  UNL1        0.0140
     20 C          65.2546   91.9890   14.4187 C.2     1  UNL1        0.2289
     21 O          65.1650   92.5510   15.8065 O.2     1  UNL1       -0.2745
     22 N          65.7446   92.8489   13.2915 N.am    1  UNL1       -0.2825
     23 C          65.8875   92.4276   11.8590 C.3     1  UNL1        0.0754
     24 C          66.4089   93.5993   11.0811 C.3     1  UNL1        0.0215
     25 C          66.5883   94.7448   12.0328 C.3     1  UNL1        0.0215
     26 C          66.1777   94.2809   13.3989 C.3     1  UNL1        0.0754
     27 C          65.6563   93.1092   14.1769 C.3     1  UNL1        0.0215
     28 C          65.4770   91.9638   13.2251 C.3     1  UNL1        0.0215
     29 C          61.8916   85.9505   11.1002 C.3     1  UNL1        0.0277
     30 C          60.7028   86.8636   11.0454 C.3     1  UNL1        0.0729
     31 N          60.3015   87.4953    9.7455 N.3     1  UNL1       -0.2703
     32 C          59.7724   86.6439    8.6297 C.3     1  UNL1        0.0897
     33 C          59.3711   87.2756    7.3297 C.3     1  UNL1        0.0897
     34 N          59.4989   88.7587    7.1455 N.3     1  UNL1       -0.2682
     35 C          60.0281   89.6102    8.2614 C.3     1  UNL1        0.0897
     36 C          60.4293   88.9785    9.5614 C.3     1  UNL1        0.0897
     37 C          59.0977   89.3904    5.8456 C.3     1  UNL1        0.1032
     38 C          59.5493   90.7826    5.5173 C.3     1  UNL1        0.1423
     39 O          58.6301   91.9443    5.7526 O.3     1  UNL1       -0.3816
     40 H          57.7905   91.6235    6.1173 H       1  UNL1        0.2105
     41 C          60.9201   91.0130    4.9536 C.3     1  UNL1        0.1032
     42 N          61.1006   91.9048    3.7611 N.3     1  UNL1       -0.2682
     43 C          59.9495   92.7229    3.2553 C.3     1  UNL1        0.0895
     44 C          60.1299   93.6147    2.0628 C.3     1  UNL1        0.0862
     45 N          61.4614   93.6885    1.3761 N.3     1  UNL1       -0.2951
     46 C          62.6125   92.8704    1.8818 C.3     1  UNL1        0.0862
     47 C          62.4321   91.9786    3.0743 C.3     1  UNL1        0.0895
     48 H          61.7564   94.6643    1.4097 H       1  UNL1        0.1233
@<TRIPOS>BOND
     1     9    10    1
     2    10    11   ar
     3    11    12   ar
     4    12    13    1
     5    12    14   ar
     6    14    15   ar
     7    15     1    1
     8     1     2    2
     9     2     3    1
    10     3     4   ar
    11     4     5   ar
    12     5    17    1
    13    17    18    1
    14    17    19    1
    15    17    20    1
    16    20    21    2
    17    20    22   am
    18    22    23    1
    19    23    24    1
    20    24    25    1
    21    25    26    1
    22    26    27    1
    23    27    28    1
    24     5     6   ar
    25     6     7   ar
    26     7     8    1
    27     8    29    1
    28    29    30    1
    29    30    31    1
    30    31    32    1
    31    32    33    1
    32    33    34    1
    33    34    37    1
    34    37    38    1
    35    38    39    1
    36    38    41    1
    37    41    42    1
    38    42    43    1
    39    43    44    1
    40    44    45    1
    41    45    46    1
    42    46    47    1
    43    34    35    1
    44    35    36    1
    45    15    16   ar
    46    16    10   ar
    47     8     1    1
    48    36    31    1
    49     7     3   ar
    50    47    42    1
    51    26    22    1
    52    28    23    1
    53    39    40    1
    54    45    48    1
@<TRIPOS>MOLECULE
*****
 48 54 0 0 0
SMALL
GASTEIGER

@<TRIPOS>ATOM
      1 C          64.3046   90.5619   13.4989 C.2     1  UNL1        0.0633
      2 N          63.5475   91.1471   12.3437 N.2     1  UNL1       -0.2432
      3 C          62.8741   90.0231   11.6136 C.ar    1  UNL1        0.1064
      4 S          61.9900   89.6901   10.4485 S.2     1  UNL1       -0.0722
      5 C          61.7844   88.2043   10.4324 C.ar    1  UNL1        0.0160
      6 C          62.5414   87.6191   11.5876 C.ar    1  UNL1        0.0007
      7 C          63.2149   88.7431   12.3176 C.ar    1  UNL1        0.0071
      8 C          64.0990   89.0761   13.4828 C.3     1  UNL1        0.0659
      9 C          64.6801   93.0821   18.0274 C.3     1  UNL1        0.0310
     10 C          65.3111   92.5880   16.7595 C.ar    1  UNL1       -0.0221
     11 C          66.7611   92.8599   16.4880 C.ar    1  UNL1       -0.0085
     12 C          67.3922   92.3658   15.2200 C.ar    1  UNL1       -0.0221
     13 C          68.8422   92.6377   14.9485 C.3     1  UNL1        0.0310
     14 C          66.5734   91.5998   14.2237 C.ar    1  UNL1       -0.0031
     15 C          65.1234   91.3279   14.4952 C.ar    1  UNL1        0.0133
     16 C          64.4923   91.8220   15.7631 C.ar    1  UNL1       -0.0031
     17 C          60.9656   87.4383    9.4361 C.3     1  UNL1        0.0934
     18 C          61.0544   86.2169   10.3022 C.3     1  UNL1        0.0140
     19 C          60.8768   88.6597    8.5699 C.3     1  UNL1        0.0140
     20 C          60.1468   86.6723    8.4397 C.2     1  UNL1        0.2289
     21 O          58.6614   86.8712    8.3783 O.2     1  UNL1       -0.2745
     22 N          60.8134   85.7072    7.5046 N.am    1  UNL1       -0.2825
     23 C          62.2816   85.4048    7.4491 C.3     1  UNL1        0.0754
     24 C          62.5045   84.3859    6.3711 C.3     1  UNL1        0.0215
     25 C          61.1742   84.0584    5.7605 C.3     1  UNL1        0.0215
     26 C          60.1290   84.8751    6.4610 C.3     1  UNL1        0.0754
     27 C          59.9060   85.8941    7.5390 C.3     1  UNL1        0.0215
     28 C          61.2364   86.2215    8.1496 C.3     1  UNL1        0.0215
     29 C          64.6761   88.0955   14.4602 C.3     1  UNL1        0.0277
     30 C          63.7769   87.3802   15.4246 C.3     1  UNL1        0.0729
     31 N          63.5814   85.8975   15.3092 N.3     1  UNL1       -0.2703
     32 C          64.6324   85.0512   14.6543 C.3     1  UNL1        0.0897
     33 C          64.4369   83.5684   14.5389 C.3     1  UNL1        0.0897
     34 N          63.1904   82.9321   15.0784 N.3     1  UNL1       -0.2682
     35 C          62.1393   83.7784   15.7334 C.3     1  UNL1        0.0897
     36 C          62.3348   85.2612   15.8488 C.3     1  UNL1        0.0897
     37 C          62.9949   81.4493   14.9631 C.3     1  UNL1        0.1032
     38 C          61.9540   80.9002   14.0331 C.3     1  UNL1        0.1423
     39 O          60.5638   80.6404   14.5330 O.3     1  UNL1       -0.3816
     40 H          60.5077   80.8796   15.4714 H       1  UNL1        0.2105
     41 C          62.3032   80.6109   12.6033 C.3     1  UNL1        0.1032
     42 N          62.8716   81.6946   11.7360 N.3     1  UNL1       -0.2682
     43 C          63.8557   81.3529   10.6567 C.3     1  UNL1        0.0895
     44 C          64.4241   82.4367    9.7894 C.3     1  UNL1        0.0862
     45 N          64.0084   83.8622   10.0013 N.3     1  UNL1       -0.2951
     46 C          63.0243   84.2041   11.0805 C.3     1  UNL1        0.0862
     47 C          62.4559   83.1202   11.9479 C.3     1  UNL1        0.0895
     48 H          63.6049   84.1851    9.1219 H       1  UNL1        0.1233
@<TRIPOS>BOND
     1     9    10    1
     2    10    11   ar
     3    11    12   ar
     4    12    13    1
     5    12    14   ar
     6    14    15   ar
     7    15     1    1
     8     1     2    2
     9     2     3    1
    10     3     4   ar
    11     4     5   ar
    12     5    17    1
    13    17    18    1
    14    17    19    1
    15    17    20    1
    16    20    21    2
    17    20    22   am
    18    22    23    1
    19    23    24    1
    20    24    25    1
    21    25    26    1
    22    26    27    1
    23    27    28    1
    24     5     6   ar
    25     6     7   ar
    26     7     8    1
    27     8    29    1
    28    29    30    1
    29    30    31    1
    30    31    32    1
    31    32    33    1
    32    33    34    1
    33    34    37    1
    34    37    38    1
    35    38    39    1
    36    38    41    1
    37    41    42    1
    38    42    43    1
    39    43    44    1
    40    44    45    1
    41    45    46    1
    42    46    47    1
    43    34    35    1
    44    35    36    1
    45    15    16   ar
    46    16    10   ar
    47     8     1    1
    48    36    31    1
    49     7     3   ar
    50    47    42    1
    51    26    22    1
    52    28    23    1
    53    39    40    1
    54    45    48    1
@<TRIPOS>MOLECULE
*****
 48 54 0 0 0
SMALL
GASTEIGER

@<TRIPOS>ATOM
      1 C          61.9961   85.6095   10.8336 C.2     1  UNL1        0.0633
      2 N          61.2783   85.2241    9.5741 N.2     1  UNL1       -0.2432
      3 C          60.7717   86.4788    8.9268 C.ar    1  UNL1        0.1064
      4 S          60.0149   87.0161    7.7484 S.2     1  UNL1       -0.0722
      5 C          59.9519   88.5090    7.8795 C.ar    1  UNL1        0.0160
      6 C          60.6697   88.8944    9.1390 C.ar    1  UNL1        0.0007
      7 C          61.1763   87.6397    9.7863 C.ar    1  UNL1        0.0071
      8 C          61.9331   87.1025   10.9647 C.3     1  UNL1        0.0659
      9 C          65.0437   84.8012   14.9638 C.3     1  UNL1        0.0310
     10 C          64.1841   84.2633   13.8586 C.ar    1  UNL1       -0.0221
     11 C          63.9887   82.7832   13.7131 C.ar    1  UNL1       -0.0085
     12 C          63.1290   82.2452   12.6077 C.ar    1  UNL1       -0.0221
     13 C          62.9337   80.7651   12.4623 C.3     1  UNL1        0.0310
     14 C          62.4649   83.1873   11.6480 C.ar    1  UNL1       -0.0031
     15 C          62.6603   84.6674   11.7934 C.ar    1  UNL1        0.0133
     16 C          63.5199   85.2054   12.8987 C.ar    1  UNL1       -0.0031
     17 C          59.2877   89.4511    6.9197 C.3     1  UNL1        0.0934
     18 C          59.1296   88.3334    5.9319 C.3     1  UNL1        0.0140
     19 C          59.4459   90.5689    7.9074 C.3     1  UNL1        0.0140
     20 C          58.6235   90.3933    5.9599 C.2     1  UNL1        0.2289
     21 O          57.1344   90.5699    5.9916 O.2     1  UNL1       -0.2745
     22 N          59.4486   91.1588    4.9682 N.am    1  UNL1       -0.2825
     23 C          60.9394   91.0862    4.8188 C.3     1  UNL1        0.0754
     24 C          61.3399   92.0138    3.7102 C.3     1  UNL1        0.0215
     25 C          60.0967   92.6597    3.1744 C.3     1  UNL1        0.0215
     26 C          58.9278   92.1313    3.9519 C.3     1  UNL1        0.0754
     27 C          58.5273   91.2036    5.0605 C.3     1  UNL1        0.0215
     28 C          59.7705   90.5577    5.5963 C.3     1  UNL1        0.0215
     29 C          62.5231   87.9154   12.0787 C.3     1  UNL1        0.0277
     30 C          62.1678   89.3661   12.2182 C.3     1  UNL1        0.0729
     31 N          63.2250   90.4167   12.0500 N.3     1  UNL1       -0.2703
     32 C          63.3997   91.0998   10.7260 C.3     1  UNL1        0.0897
     33 C          64.4569   92.1505   10.5578 C.3     1  UNL1        0.0897
     34 N          65.3395   92.5181   11.7136 N.3     1  UNL1       -0.2682
     35 C          65.1649   91.8350   13.0376 C.3     1  UNL1        0.0897
     36 C          64.1076   90.7844   13.2058 C.3     1  UNL1        0.0897
     37 C          66.3968   93.5688   11.5454 C.3     1  UNL1        0.1032
     38 C          66.3800   94.7947   12.4094 C.3     1  UNL1        0.1423
     39 O          66.4004   94.6598   13.9032 O.3     1  UNL1       -0.3816
     40 H          66.4238   93.7201   14.1426 H       1  UNL1        0.2105
     41 C          66.3428   96.1557   11.7798 C.3     1  UNL1        0.1032
     42 N          66.0846   96.2946   10.3087 N.3     1  UNL1       -0.2682
     43 C          67.1832   96.0192    9.3251 C.3     1  UNL1        0.0895
     44 C          66.9250   96.1582    7.8541 C.3     1  UNL1        0.0862
     45 N          65.5683   96.5726    7.3666 N.3     1  UNL1       -0.2951
     46 C          64.4698   96.8480    8.3501 C.3     1  UNL1        0.0862
     47 C          64.7279   96.7090    9.8212 C.3     1  UNL1        0.0895
     48 H          65.2354   95.8279    6.7542 H       1  UNL1        0.1233
@<TRIPOS>BOND
     1     9    10    1
     2    10    11   ar
     3    11    12   ar
     4    12    13    1
     5    12    14   ar
     6    14    15   ar
     7    15     1    1
     8     1     2    2
     9     2     3    1
    10     3     4   ar
    11     4     5   ar
    12     5    17    1
    13    17    18    1
    14    17    19    1
    15    17    20    1
    16    20    21    2
    17    20    22   am
    18    22    23    1
    19    23    24    1
    20    24    25    1
    21    25    26    1
    22    26    27    1
    23    27    28    1
    24     5     6   ar
    25     6     7   ar
    26     7     8    1
    27     8    29    1
    28    29    30    1
    29    30    31    1
    30    31    32    1
    31    32    33    1
    32    33    34    1
    33    34    37    1
    34    37    38    1
    35    38    39    1
    36    38    41    1
    37    41    42    1
    38    42    43    1
    39    43    44    1
    40    44    45    1
    41    45    46    1
    42    46    47    1
    43    34    35    1
    44    35    36    1
    45    15    16   ar
    46    16    10   ar
    47     8     1    1
    48    36    31    1
    49     7     3   ar
    50    47    42    1
    51    26    22    1
    52    28    23    1
    53    39    40    1
    54    45    48    1
@<TRIPOS>MOLECULE
*****
 48 54 0 0 0
SMALL
GASTEIGER

@<TRIPOS>ATOM
      1 C          60.3308   88.4328    7.7878 C.2     1  UNL1        0.0633
      2 N          60.7639   87.0275    7.4918 N.2     1  UNL1       -0.2432
      3 C          61.4017   86.4686    8.7291 C.ar    1  UNL1        0.1064
      4 S          62.0636   85.2547    9.3108 S.2     1  UNL1       -0.0722
      5 C          62.4338   85.5644   10.7310 C.ar    1  UNL1        0.0160
      6 C          62.0008   86.9697   11.0271 C.ar    1  UNL1        0.0007
      7 C          61.3629   87.5285    9.7898 C.ar    1  UNL1        0.0071
      8 C          60.7010   88.7424    9.2081 C.3     1  UNL1        0.0659
      9 C          60.5919   92.1264    4.1425 C.3     1  UNL1        0.0310
     10 C          59.7781   91.2116    5.0089 C.ar    1  UNL1       -0.0221
     11 C          58.2809   91.2288    4.9190 C.ar    1  UNL1       -0.0085
     12 C          57.4669   90.3139    5.7855 C.ar    1  UNL1       -0.0221
     13 C          55.9697   90.3311    5.6956 C.3     1  UNL1        0.0310
     14 C          58.1502   89.3819    6.7417 C.ar    1  UNL1       -0.0031
     15 C          59.6475   89.3647    6.8316 C.ar    1  UNL1        0.0133
     16 C          60.4613   90.2795    5.9652 C.ar    1  UNL1       -0.0031
     17 C          63.1172   84.6324   11.6873 C.3     1  UNL1        0.0934
     18 C          63.7592   83.9198   10.5340 C.3     1  UNL1        0.0140
     19 C          62.4751   85.3450   12.8405 C.3     1  UNL1        0.0140
     20 C          63.8005   83.7004   12.6436 C.2     1  UNL1        0.2289
     21 O          65.0405   84.1409   13.3633 O.2     1  UNL1       -0.2745
     22 N          63.2436   82.3278   12.8802 N.am    1  UNL1       -0.2825
     23 C          62.0180   81.7505   12.2364 C.3     1  UNL1        0.0754
     24 C          61.8316   80.3575   12.7604 C.3     1  UNL1        0.0215
     25 C          62.9420   80.0737   13.7280 C.3     1  UNL1        0.0215
     26 C          63.8147   81.2915   13.8020 C.3     1  UNL1        0.0754
     27 C          64.0012   82.6846   13.2780 C.3     1  UNL1        0.0215
     28 C          62.8907   82.9683   12.3104 C.3     1  UNL1        0.0215
     29 C          60.4529   90.0384    9.9214 C.3     1  UNL1        0.0277
     30 C          61.1060   90.3026   11.2458 C.3     1  UNL1        0.0729
     31 N          62.4556   90.9551   11.2996 N.3     1  UNL1       -0.2703
     32 C          63.1931   91.0465   12.6025 C.3     1  UNL1        0.0897
     33 C          64.5426   91.6990   12.6563 C.3     1  UNL1        0.0897
     34 N          65.1547   92.2602   11.4072 N.3     1  UNL1       -0.2682
     35 C          64.4172   92.1688   10.1041 C.3     1  UNL1        0.0897
     36 C          63.0677   91.5163   10.0503 C.3     1  UNL1        0.0897
     37 C          66.5043   92.9127   11.4610 C.3     1  UNL1        0.1032
     38 C          67.7459   92.0767   11.3643 C.3     1  UNL1        0.1423
     39 O          68.3458   91.7771   10.0226 O.3     1  UNL1       -0.3816
     40 H          67.8121   92.1956    9.3291 H       1  UNL1        0.2105
     41 C          68.3877   91.5403   12.6095 C.3     1  UNL1        0.1032
     42 N          68.0196   92.1090   13.9477 N.3     1  UNL1       -0.2682
     43 C          66.7090   91.7476   14.5815 C.3     1  UNL1        0.0895
     44 C          66.3409   92.3163   15.9198 C.3     1  UNL1        0.0862
     45 N          67.2834   93.2466   16.6243 N.3     1  UNL1       -0.2951
     46 C          68.5940   93.6080   15.9906 C.3     1  UNL1        0.0862
     47 C          68.9621   93.0393   14.6523 C.3     1  UNL1        0.0895
     48 H          67.4997   92.8199   17.5252 H       1  UNL1        0.1233
@<TRIPOS>BOND
     1     9    10    1
     2    10    11   ar
     3    11    12   ar
     4    12    13    1
     5    12    14   ar
     6    14    15   ar
     7    15     1    1
     8     1     2    2
     9     2     3    1
    10     3     4   ar
    11     4     5   ar
    12     5    17    1
    13    17    18    1
    14    17    19    1
    15    17    20    1
    16    20    21    2
    17    20    22   am
    18    22    23    1
    19    23    24    1
    20    24    25    1
    21    25    26    1
    22    26    27    1
    23    27    28    1
    24     5     6   ar
    25     6     7   ar
    26     7     8    1
    27     8    29    1
    28    29    30    1
    29    30    31    1
    30    31    32    1
    31    32    33    1
    32    33    34    1
    33    34    37    1
    34    37    38    1
    35    38    39    1
    36    38    41    1
    37    41    42    1
    38    42    43    1
    39    43    44    1
    40    44    45    1
    41    45    46    1
    42    46    47    1
    43    34    35    1
    44    35    36    1
    45    15    16   ar
    46    16    10   ar
    47     8     1    1
    48    36    31    1
    49     7     3   ar
    50    47    42    1
    51    26    22    1
    52    28    23    1
    53    39    40    1
    54    45    48    1
@<TRIPOS>MOLECULE
*****
 48 54 0 0 0
SMALL
GASTEIGER

@<TRIPOS>ATOM
      1 C          64.1987   88.1223   13.8891 C.2     1  UNL1        0.0633
      2 N          64.7160   87.0640   14.8178 N.2     1  UNL1       -0.2432
      3 C          64.2102   85.7367   14.3358 C.ar    1  UNL1        0.1064
      4 S          64.2172   84.2623   14.6120 S.2     1  UNL1       -0.0722
      5 C          63.3917   83.5890   13.5560 C.ar    1  UNL1        0.0160
      6 C          62.8743   84.6472   12.6273 C.ar    1  UNL1        0.0007
      7 C          63.3802   85.9746   13.1092 C.ar    1  UNL1        0.0071
      8 C          63.3731   87.4489   12.8331 C.3     1  UNL1        0.0659
      9 C          64.8970   92.3665   16.8044 C.3     1  UNL1        0.0310
     10 C          64.8101   91.7173   15.4549 C.ar    1  UNL1       -0.0221
     11 C          64.9854   92.5410   14.2137 C.ar    1  UNL1       -0.0085
     12 C          64.8985   91.8918   12.8642 C.ar    1  UNL1       -0.0221
     13 C          65.0739   92.7156   11.6229 C.3     1  UNL1        0.0310
     14 C          64.6363   90.4190   12.7560 C.ar    1  UNL1       -0.0031
     15 C          64.4609   89.5951   13.9973 C.ar    1  UNL1        0.0133
     16 C          64.5478   90.2443   15.3467 C.ar    1  UNL1       -0.0031
     17 C          63.1294   82.1161   13.4478 C.3     1  UNL1        0.0934
     18 C          61.7784   82.3109   14.0698 C.3     1  UNL1        0.0140
     19 C          64.4804   81.9213   12.8258 C.3     1  UNL1        0.0140
     20 C          62.8672   80.6432   13.3396 C.2     1  UNL1        0.2289
     21 O          62.6803   79.8215   14.5804 O.2     1  UNL1       -0.2745
     22 N          62.7918   79.9919   11.9903 N.am    1  UNL1       -0.2825
     23 C          62.9572   80.6810   10.6683 C.3     1  UNL1        0.0754
     24 C          62.8054   79.6523    9.5872 C.3     1  UNL1        0.0215
     25 C          62.5461   78.3275   10.2411 C.3     1  UNL1        0.0215
     26 C          62.5377   78.5374   11.7263 C.3     1  UNL1        0.0754
     27 C          62.6895   79.5661   12.8075 C.3     1  UNL1        0.0215
     28 C          62.9488   80.8909   12.1535 C.3     1  UNL1        0.0215
     29 C          62.6648   88.1303   11.6999 C.3     1  UNL1        0.0277
     30 C          61.3471   87.6034   11.2139 C.3     1  UNL1        0.0729
     31 N          60.7680   88.1057    9.9246 N.3     1  UNL1       -0.2703
     32 C          60.7132   89.5794    9.6508 C.3     1  UNL1        0.0897
     33 C          60.1341   90.0818    8.3615 C.3     1  UNL1        0.0897
     34 N          59.6098   89.1103    7.3460 N.3     1  UNL1       -0.2682
     35 C          59.6646   87.6365    7.6197 C.3     1  UNL1        0.0897
     36 C          60.2437   87.1342    8.9090 C.3     1  UNL1        0.0897
     37 C          59.0307   89.6127    6.0567 C.3     1  UNL1        0.1032
     38 C          59.4978   90.9174    5.4827 C.3     1  UNL1        0.1423
     39 O          58.6171   92.1291    5.5606 O.3     1  UNL1       -0.3816
     40 H          57.7884   91.8982    6.0090 H       1  UNL1        0.2105
     41 C          60.8455   91.0105    4.8307 C.3     1  UNL1        0.1032
     42 N          61.0527   91.9314    3.6650 N.3     1  UNL1       -0.2682
     43 C          62.4046   92.0368    3.0236 C.3     1  UNL1        0.0895
     44 C          62.6119   92.9577    1.8579 C.3     1  UNL1        0.0862
     45 N          61.4673   93.7732    1.3335 N.3     1  UNL1       -0.2951
     46 C          60.1155   93.6678    1.9749 C.3     1  UNL1        0.0862
     47 C          59.9082   92.7468    3.1407 C.3     1  UNL1        0.0895
     48 H          61.3488   93.5180    0.3531 H       1  UNL1        0.1233
@<TRIPOS>BOND
     1     9    10    1
     2    10    11   ar
     3    11    12   ar
     4    12    13    1
     5    12    14   ar
     6    14    15   ar
     7    15     1    1
     8     1     2    2
     9     2     3    1
    10     3     4   ar
    11     4     5   ar
    12     5    17    1
    13    17    18    1
    14    17    19    1
    15    17    20    1
    16    20    21    2
    17    20    22   am
    18    22    23    1
    19    23    24    1
    20    24    25    1
    21    25    26    1
    22    26    27    1
    23    27    28    1
    24     5     6   ar
    25     6     7   ar
    26     7     8    1
    27     8    29    1
    28    29    30    1
    29    30    31    1
    30    31    32    1
    31    32    33    1
    32    33    34    1
    33    34    37    1
    34    37    38    1
    35    38    39    1
    36    38    41    1
    37    41    42    1
    38    42    43    1
    39    43    44    1
    40    44    45    1
    41    45    46    1
    42    46    47    1
    43    34    35    1
    44    35    36    1
    45    15    16   ar
    46    16    10   ar
    47     8     1    1
    48    36    31    1
    49     7     3   ar
    50    47    42    1
    51    26    22    1
    52    28    23    1
    53    39    40    1
    54    45    48    1
@<TRIPOS>MOLECULE
*****
 48 54 0 0 0
SMALL
GASTEIGER

@<TRIPOS>ATOM
      1 C          62.0211   85.3336   10.7601 C.2     1  UNL1        0.0633
      2 N          61.3190   84.9903    9.4798 N.2     1  UNL1       -0.2432
      3 C          60.8013   86.2636    8.8792 C.ar    1  UNL1        0.1064
      4 S          60.0474   86.8383    7.7168 S.2     1  UNL1       -0.0722
      5 C          59.9636   88.3238    7.9075 C.ar    1  UNL1        0.0160
      6 C          60.6658   88.6671    9.1877 C.ar    1  UNL1        0.0007
      7 C          61.1835   87.3938    9.7883 C.ar    1  UNL1        0.0071
      8 C          61.9373   86.8191   10.9508 C.3     1  UNL1        0.0659
      9 C          62.8106   80.4521   12.3563 C.3     1  UNL1        0.0310
     10 C          63.0844   81.9212   12.4851 C.ar    1  UNL1       -0.0221
     11 C          64.0266   82.4189   13.5408 C.ar    1  UNL1       -0.0085
     12 C          64.3004   83.8881   13.6696 C.ar    1  UNL1       -0.0221
     13 C          65.2427   84.3857   14.7254 C.3     1  UNL1        0.0310
     14 C          63.6319   84.8596   12.7428 C.ar    1  UNL1       -0.0031
     15 C          62.6896   84.3621   11.6870 C.ar    1  UNL1        0.0133
     16 C          62.4159   82.8929   11.5582 C.ar    1  UNL1       -0.0031
     17 C          59.2951   89.2954    6.9806 C.3     1  UNL1        0.0934
     18 C          59.5503   90.4038    7.9585 C.3     1  UNL1        0.0140
     19 C          59.0399   88.1869    6.0027 C.3     1  UNL1        0.0140
     20 C          58.6266   90.2670    6.0537 C.2     1  UNL1        0.2289
     21 O          57.1378   90.4436    6.0988 O.2     1  UNL1       -0.2745
     22 N          59.4470   91.0621    5.0816 N.am    1  UNL1       -0.2825
     23 C          60.9369   90.9931    4.9221 C.3     1  UNL1        0.0754
     24 C          61.3322   91.9540    3.8403 C.3     1  UNL1        0.0215
     25 C          60.0868   92.6169    3.3312 C.3     1  UNL1        0.0215
     26 C          58.9216   92.0657    4.0984 C.3     1  UNL1        0.0754
     27 C          58.5262   91.1047    5.1802 C.3     1  UNL1        0.0215
     28 C          59.7718   90.4418    5.6893 C.3     1  UNL1        0.0215
     29 C          62.5074   87.5938   12.1018 C.3     1  UNL1        0.0277
     30 C          62.2232   89.0609   12.2326 C.3     1  UNL1        0.0729
     31 N          63.2538   89.9744   12.8269 N.3     1  UNL1       -0.2703
     32 C          63.6979   91.1941   12.0751 C.3     1  UNL1        0.0897
     33 C          64.7285   92.1076   12.6695 C.3     1  UNL1        0.0897
     34 N          65.3151   91.8015   14.0156 N.3     1  UNL1       -0.2682
     35 C          64.8710   90.5818   14.7675 C.3     1  UNL1        0.0897
     36 C          63.8404   89.6683   14.1732 C.3     1  UNL1        0.0897
     37 C          66.3457   92.7150   14.6100 C.3     1  UNL1        0.1032
     38 C          67.7629   92.6657   14.1212 C.3     1  UNL1        0.1423
     39 O          68.8448   93.3696   14.8854 O.3     1  UNL1       -0.3816
     40 H          68.4610   93.8039   15.6632 H       1  UNL1        0.2105
     41 C          68.0983   91.9124   12.8681 C.3     1  UNL1        0.1032
     42 N          67.9204   92.5660   11.5298 N.3     1  UNL1       -0.2682
     43 C          68.5727   91.9763   10.3145 C.3     1  UNL1        0.0895
     44 C          68.3948   92.6298    8.9762 C.3     1  UNL1        0.0862
     45 N          67.5645   93.8730    8.8531 N.3     1  UNL1       -0.2951
     46 C          66.9122   94.4627   10.0682 C.3     1  UNL1        0.0862
     47 C          67.0901   93.8092   11.4067 C.3     1  UNL1        0.0895
     48 H          66.8179   93.6641    8.1902 H       1  UNL1        0.1233
@<TRIPOS>BOND
     1     9    10    1
     2    10    11   ar
     3    11    12   ar
     4    12    13    1
     5    12    14   ar
     6    14    15   ar
     7    15     1    1
     8     1     2    2
     9     2     3    1
    10     3     4   ar
    11     4     5   ar
    12     5    17    1
    13    17    18    1
    14    17    19    1
    15    17    20    1
    16    20    21    2
    17    20    22   am
    18    22    23    1
    19    23    24    1
    20    24    25    1
    21    25    26    1
    22    26    27    1
    23    27    28    1
    24     5     6   ar
    25     6     7   ar
    26     7     8    1
    27     8    29    1
    28    29    30    1
    29    30    31    1
    30    31    32    1
    31    32    33    1
    32    33    34    1
    33    34    37    1
    34    37    38    1
    35    38    39    1
    36    38    41    1
    37    41    42    1
    38    42    43    1
    39    43    44    1
    40    44    45    1
    41    45    46    1
    42    46    47    1
    43    34    35    1
    44    35    36    1
    45    15    16   ar
    46    16    10   ar
    47     8     1    1
    48    36    31    1
    49     7     3   ar
    50    47    42    1
    51    26    22    1
    52    28    23    1
    53    39    40    1
    54    45    48    1
@<TRIPOS>MOLECULE
*****
 48 54 0 0 0
SMALL
GASTEIGER

@<TRIPOS>ATOM
      1 C          59.9885   88.8389    7.2478 C.2     1  UNL1        0.0633
      2 N          60.4685   87.4614    6.8985 N.2     1  UNL1       -0.2432
      3 C          60.9837   86.8183    8.1518 C.ar    1  UNL1        0.1064
      4 S          61.5988   85.5695    8.7105 S.2     1  UNL1       -0.0722
      5 C          61.8175   85.7778   10.1798 C.ar    1  UNL1        0.0160
      6 C          61.3375   87.1553   10.5292 C.ar    1  UNL1        0.0007
      7 C          60.8222   87.7984    9.2758 C.ar    1  UNL1        0.0071
      8 C          60.2071   89.0472    8.7172 C.3     1  UNL1        0.0659
      9 C          60.5898   92.5062    3.6160 C.3     1  UNL1        0.0310
     10 C          59.6949   91.6672    4.4793 C.ar    1  UNL1       -0.0221
     11 C          58.2057   91.8228    4.3899 C.ar    1  UNL1       -0.0085
     12 C          57.3107   90.9838    5.2532 C.ar    1  UNL1       -0.0221
     13 C          55.8214   91.1395    5.1637 C.3     1  UNL1        0.0310
     14 C          57.9049   89.9892    6.2058 C.ar    1  UNL1       -0.0031
     15 C          59.3942   89.8335    6.2952 C.ar    1  UNL1        0.0133
     16 C          60.2891   90.6725    5.4320 C.ar    1  UNL1       -0.0031
     17 C          62.4117   84.7831   11.1325 C.3     1  UNL1        0.0934
     18 C          63.2125   84.1884   10.0121 C.3     1  UNL1        0.0140
     19 C          61.6110   85.3778   12.2528 C.3     1  UNL1        0.0140
     20 C          63.0060   83.7885   12.0851 C.2     1  UNL1        0.2289
     21 O          62.8816   82.3193   11.8098 O.2     1  UNL1       -0.2745
     22 N          63.7248   84.2632   13.3133 N.am    1  UNL1       -0.2825
     23 C          63.9277   85.6930   13.7188 C.3     1  UNL1        0.0754
     24 C          64.6951   85.7048   15.0075 C.3     1  UNL1        0.0215
     25 C          64.9664   84.2824   15.3986 C.3     1  UNL1        0.0215
     26 C          64.3667   83.3914   14.3515 C.3     1  UNL1        0.0754
     27 C          63.5993   83.3795   13.0626 C.3     1  UNL1        0.0215
     28 C          63.3280   84.8020   12.6716 C.3     1  UNL1        0.0215
     29 C          59.8698   90.2866    9.4918 C.3     1  UNL1        0.0277
     30 C          60.4196   90.4800   10.8740 C.3     1  UNL1        0.0729
     31 N          61.8480   90.8979   11.0614 N.3     1  UNL1       -0.2703
     32 C          62.4853   90.8042   12.4160 C.3     1  UNL1        0.0897
     33 C          63.9137   91.2221   12.6033 C.3     1  UNL1        0.0897
     34 N          64.7047   91.7336   11.4361 N.3     1  UNL1       -0.2682
     35 C          64.0674   91.8273   10.0814 C.3     1  UNL1        0.0897
     36 C          62.6390   91.4095    9.8940 C.3     1  UNL1        0.0897
     37 C          66.1331   92.1515   11.6234 C.3     1  UNL1        0.1032
     38 C          66.6118   92.6030   12.9713 C.3     1  UNL1        0.1423
     39 O          66.8977   94.0547   13.2181 O.3     1  UNL1       -0.3816
     40 H          66.7229   94.5607   12.4092 H       1  UNL1        0.2105
     41 C          66.8047   91.6029   14.0725 C.3     1  UNL1        0.1032
     42 N          65.6594   91.2504   14.9746 N.3     1  UNL1       -0.2682
     43 C          65.2010   92.2237   16.0199 C.3     1  UNL1        0.0895
     44 C          64.0556   91.8712   16.9221 C.3     1  UNL1        0.0862
     45 N          63.3687   90.5455   16.7790 N.3     1  UNL1       -0.2951
     46 C          63.8270   89.5722   15.7337 C.3     1  UNL1        0.0862
     47 C          64.9724   89.9247   14.8315 C.3     1  UNL1        0.0895
     48 H          62.3862   90.7421   16.5877 H       1  UNL1        0.1233
@<TRIPOS>BOND
     1     9    10    1
     2    10    11   ar
     3    11    12   ar
     4    12    13    1
     5    12    14   ar
     6    14    15   ar
     7    15     1    1
     8     1     2    2
     9     2     3    1
    10     3     4   ar
    11     4     5   ar
    12     5    17    1
    13    17    18    1
    14    17    19    1
    15    17    20    1
    16    20    21    2
    17    20    22   am
    18    22    23    1
    19    23    24    1
    20    24    25    1
    21    25    26    1
    22    26    27    1
    23    27    28    1
    24     5     6   ar
    25     6     7   ar
    26     7     8    1
    27     8    29    1
    28    29    30    1
    29    30    31    1
    30    31    32    1
    31    32    33    1
    32    33    34    1
    33    34    37    1
    34    37    38    1
    35    38    39    1
    36    38    41    1
    37    41    42    1
    38    42    43    1
    39    43    44    1
    40    44    45    1
    41    45    46    1
    42    46    47    1
    43    34    35    1
    44    35    36    1
    45    15    16   ar
    46    16    10   ar
    47     8     1    1
    48    36    31    1
    49     7     3   ar
    50    47    42    1
    51    26    22    1
    52    28    23    1
    53    39    40    1
    54    45    48    1
