@<TRIPOS>MOLECULE
*****
 21 23 0 0 0
SMALL
GASTEIGER

@<TRIPOS>ATOM
      1 C          63.1143   89.6171   12.6523 C.ar    1  UNL1        0.1386
      2 C          63.7946   89.1279   13.8964 C.ar    1  UNL1        0.0384
      3 C          64.9371   89.9043   14.4812 C.ar    1  UNL1        0.0207
      4 C          65.3994   91.1697   13.8218 C.ar    1  UNL1        0.0657
      5 C          64.7191   91.6589   12.5776 C.ar    1  UNL1        0.0207
      6 C          63.5766   90.8826   11.9928 C.ar    1  UNL1        0.0384
      7 N          66.5419   91.9461   14.4065 N.ar    1  UNL1       -0.2864
      8 C          66.4979   92.7719   15.6579 C.ar    1  UNL1        0.1022
      9 C          67.8578   93.3691   15.8673 C.ar    1  UNL1        0.1196
     10 N          68.7424   92.9123   14.7454 N.ar    1  UNL1       -0.2220
     11 C          67.9291   92.0329   13.8425 C.ar    1  UNL1        0.1828
     12 O          61.9718   88.8407   12.0676 O.3     1  UNL1       -0.4754
     13 C          61.7852   88.7865   10.5801 C.3     1  UNL1        0.2058
     14 C          62.0009   87.4976    9.8438 C.3     1  UNL1        0.0536
     15 C          61.5104   86.2073   10.4307 C.3     1  UNL1        0.0496
     16 C          64.3506   83.5312   12.6716 C.ar    1  UNL1        0.0207
     17 C          64.0795   83.2864   11.2168 C.ar    1  UNL1        0.0028
     18 C          63.1327   84.1784   10.4698 C.ar    1  UNL1        0.0147
     19 C          62.4571   85.3153   11.1776 C.ar    1  UNL1        0.0591
     20 N          62.7283   85.5601   12.6324 N.ar    1  UNL1       -0.2481
     21 C          63.6750   84.6680   13.3794 C.ar    1  UNL1        0.0984
@<TRIPOS>BOND
     1    16    17   ar
     2    17    18   ar
     3    18    19   ar
     4    19    15    1
     5    15    14    1
     6    14    13    1
     7    13    12    1
     8    12     1    1
     9     1     2   ar
    10     2     3   ar
    11     3     4   ar
    12     4     7    1
    13     7     8   ar
    14     8     9   ar
    15     9    10   ar
    16    10    11   ar
    17     4     5   ar
    18     5     6   ar
    19    19    20   ar
    20    20    21   ar
    21    21    16   ar
    22     6     1   ar
    23    11     7   ar
@<TRIPOS>MOLECULE
*****
 21 23 0 0 0
SMALL
GASTEIGER

@<TRIPOS>ATOM
      1 C          63.0452   89.6849   12.5005 C.ar    1  UNL1        0.1386
      2 C          63.5479   90.9462   11.8629 C.ar    1  UNL1        0.0384
      3 C          64.6930   91.6935   12.4795 C.ar    1  UNL1        0.0207
      4 C          65.3355   91.1796   13.7337 C.ar    1  UNL1        0.0657
      5 C          64.8329   89.9182   14.3713 C.ar    1  UNL1        0.0207
      6 C          63.6878   89.1709   13.7547 C.ar    1  UNL1        0.0384
      7 N          66.4806   91.9269   14.3503 N.ar    1  UNL1       -0.2864
      8 C          66.4513   92.6639   15.6564 C.ar    1  UNL1        0.1022
      9 C          67.8087   93.2610   15.8823 C.ar    1  UNL1        0.1196
     10 N          68.6770   92.8929   14.7159 N.ar    1  UNL1       -0.2220
     11 C          67.8562   92.0684   13.7690 C.ar    1  UNL1        0.1828
     12 O          61.9001   88.9376   11.8839 O.3     1  UNL1       -0.4754
     13 C          62.1627   87.8825   10.8504 C.3     1  UNL1        0.2058
     14 C          61.5981   86.5039   11.0258 C.3     1  UNL1        0.0536
     15 C          62.5089   85.3123   11.0054 C.3     1  UNL1        0.0496
     16 C          62.6135   82.4999   14.5167 C.ar    1  UNL1        0.0207
     17 C          62.6740   81.9577   13.1195 C.ar    1  UNL1        0.0028
     18 C          62.6392   82.8952   11.9490 C.ar    1  UNL1        0.0147
     19 C          62.5438   84.3748   12.1758 C.ar    1  UNL1        0.0591
     20 N          62.4833   84.9170   13.5731 N.ar    1  UNL1       -0.2481
     21 C          62.5182   83.9795   14.7435 C.ar    1  UNL1        0.0984
@<TRIPOS>BOND
     1    16    17   ar
     2    17    18   ar
     3    18    19   ar
     4    19    15    1
     5    15    14    1
     6    14    13    1
     7    13    12    1
     8    12     1    1
     9     1     2   ar
    10     2     3   ar
    11     3     4   ar
    12     4     7    1
    13     7     8   ar
    14     8     9   ar
    15     9    10   ar
    16    10    11   ar
    17     4     5   ar
    18     5     6   ar
    19    19    20   ar
    20    20    21   ar
    21    21    16   ar
    22     6     1   ar
    23    11     7   ar
@<TRIPOS>MOLECULE
*****
 21 23 0 0 0
SMALL
GASTEIGER

@<TRIPOS>ATOM
      1 C          62.9435   90.1040   12.8048 C.ar    1  UNL1        0.1386
      2 C          63.5941   91.2210   12.0440 C.ar    1  UNL1        0.0384
      3 C          64.8442   91.8599   12.5724 C.ar    1  UNL1        0.0207
      4 C          65.4436   91.3817   13.8616 C.ar    1  UNL1        0.0657
      5 C          64.7930   90.2646   14.6224 C.ar    1  UNL1        0.0207
      6 C          63.5429   89.6257   14.0940 C.ar    1  UNL1        0.0384
      7 N          66.6937   92.0206   14.3900 N.ar    1  UNL1       -0.2864
      8 C          66.8143   92.7988   15.6666 C.ar    1  UNL1        0.1022
      9 C          68.2378   93.2526   15.8001 C.ar    1  UNL1        0.1196
     10 N          68.9969   92.7548   14.6060 N.ar    1  UNL1       -0.2220
     11 C          68.0426   91.9934   13.7345 C.ar    1  UNL1        0.1828
     12 O          61.6934   89.4651   12.2764 O.3     1  UNL1       -0.4754
     13 C          61.0037   90.0454   11.0774 C.3     1  UNL1        0.2058
     14 C          60.7630   89.1945    9.8658 C.3     1  UNL1        0.0536
     15 C          60.2736   87.7855   10.0241 C.3     1  UNL1        0.0496
     16 C          63.2227   84.4000   10.3261 C.ar    1  UNL1        0.0207
     17 C          62.9890   85.0757    9.0075 C.ar    1  UNL1        0.0028
     18 C          62.0060   86.2042    8.9068 C.ar    1  UNL1        0.0147
     19 C          61.2567   86.6570   10.1247 C.ar    1  UNL1        0.0591
     20 N          61.4904   85.9813   11.4433 N.ar    1  UNL1       -0.2481
     21 C          62.4734   84.8528   11.5440 C.ar    1  UNL1        0.0984
@<TRIPOS>BOND
     1    16    17   ar
     2    17    18   ar
     3    18    19   ar
     4    19    15    1
     5    15    14    1
     6    14    13    1
     7    13    12    1
     8    12     1    1
     9     1     2   ar
    10     2     3   ar
    11     3     4   ar
    12     4     7    1
    13     7     8   ar
    14     8     9   ar
    15     9    10   ar
    16    10    11   ar
    17     4     5   ar
    18     5     6   ar
    19    19    20   ar
    20    20    21   ar
    21    21    16   ar
    22     6     1   ar
    23    11     7   ar
@<TRIPOS>MOLECULE
*****
 21 23 0 0 0
SMALL
GASTEIGER

@<TRIPOS>ATOM
      1 C          63.8336   90.6177   13.3148 C.ar    1  UNL1        0.1386
      2 C          65.0188   91.3031   13.9275 C.ar    1  UNL1        0.0384
      3 C          65.8651   92.2226   13.0979 C.ar    1  UNL1        0.0207
      4 C          65.5263   92.4568   11.6556 C.ar    1  UNL1        0.0657
      5 C          64.3410   91.7714   11.0428 C.ar    1  UNL1        0.0207
      6 C          63.4947   90.8518   11.8724 C.ar    1  UNL1        0.0384
      7 N          66.3726   93.3763   10.8261 N.ar    1  UNL1       -0.2864
      8 C          66.1719   94.8541   10.6651 C.ar    1  UNL1        0.1022
      9 C          67.2435   95.3706    9.7514 C.ar    1  UNL1        0.1196
     10 N          68.1065   94.2121    9.3476 N.ar    1  UNL1       -0.2220
     11 C          67.5682   92.9795   10.0118 C.ar    1  UNL1        0.1828
     12 O          62.9873   89.6982   14.1443 O.3     1  UNL1       -0.4754
     13 C          63.6307   88.7886   15.1487 C.3     1  UNL1        0.2058
     14 C          64.5707   87.7125   14.6921 C.3     1  UNL1        0.0536
     15 C          64.2314   86.2706   14.9280 C.3     1  UNL1        0.0496
     16 C          63.2080   83.6021   11.4520 C.ar    1  UNL1        0.0207
     17 C          64.1929   83.1426   12.4858 C.ar    1  UNL1        0.0028
     18 C          64.5341   84.0321   13.6444 C.ar    1  UNL1        0.0147
     19 C          63.8902   85.3811   13.7693 C.ar    1  UNL1        0.0591
     20 N          62.9053   85.8406   12.7356 N.ar    1  UNL1       -0.2481
     21 C          62.5641   84.9511   11.5769 C.ar    1  UNL1        0.0984
@<TRIPOS>BOND
     1    16    17   ar
     2    17    18   ar
     3    18    19   ar
     4    19    15    1
     5    15    14    1
     6    14    13    1
     7    13    12    1
     8    12     1    1
     9     1     2   ar
    10     2     3   ar
    11     3     4   ar
    12     4     7    1
    13     7     8   ar
    14     8     9   ar
    15     9    10   ar
    16    10    11   ar
    17     4     5   ar
    18     5     6   ar
    19    19    20   ar
    20    20    21   ar
    21    21    16   ar
    22     6     1   ar
    23    11     7   ar
@<TRIPOS>MOLECULE
*****
 21 23 0 0 0
SMALL
GASTEIGER

@<TRIPOS>ATOM
      1 C          62.3387   89.2628   10.8692 C.ar    1  UNL1        0.1386
      2 C          62.8749   89.0674   12.2564 C.ar    1  UNL1        0.0384
      3 C          63.8229   90.0713   12.8425 C.ar    1  UNL1        0.0207
      4 C          64.2348   91.2706   12.0413 C.ar    1  UNL1        0.0657
      5 C          63.6987   91.4661   10.6540 C.ar    1  UNL1        0.0207
      6 C          62.7506   90.4622   10.0680 C.ar    1  UNL1        0.0384
      7 N          65.1829   92.2745   12.6273 N.ar    1  UNL1       -0.2864
      8 C          65.7375   92.2546   14.0209 C.ar    1  UNL1        0.1022
      9 C          66.6402   93.4423   14.1775 C.ar    1  UNL1        0.1196
     10 N          66.6434   94.1963   12.8808 N.ar    1  UNL1       -0.2220
     11 C          65.7428   93.4745   11.9227 C.ar    1  UNL1        0.1828
     12 O          61.3907   88.2590   10.2832 O.3     1  UNL1       -0.4754
     13 C          60.9818   87.0576   11.0830 C.3     1  UNL1        0.2058
     14 C          61.7293   85.7659   10.9314 C.3     1  UNL1        0.0536
     15 C          62.6904   85.3262   11.9958 C.3     1  UNL1        0.0496
     16 C          62.6960   81.0492   13.3948 C.ar    1  UNL1        0.0207
     17 C          62.9369   81.3656   11.9485 C.ar    1  UNL1        0.0028
     18 C          62.9350   82.7912   11.4822 C.ar    1  UNL1        0.0147
     19 C          62.6923   83.9006   12.4621 C.ar    1  UNL1        0.0591
     20 N          62.4514   83.5842   13.9085 N.ar    1  UNL1       -0.2481
     21 C          62.4533   82.1585   14.3748 C.ar    1  UNL1        0.0984
@<TRIPOS>BOND
     1    16    17   ar
     2    17    18   ar
     3    18    19   ar
     4    19    15    1
     5    15    14    1
     6    14    13    1
     7    13    12    1
     8    12     1    1
     9     1     2   ar
    10     2     3   ar
    11     3     4   ar
    12     4     7    1
    13     7     8   ar
    14     8     9   ar
    15     9    10   ar
    16    10    11   ar
    17     4     5   ar
    18     5     6   ar
    19    19    20   ar
    20    20    21   ar
    21    21    16   ar
    22     6     1   ar
    23    11     7   ar
@<TRIPOS>MOLECULE
*****
 21 23 0 0 0
SMALL
GASTEIGER

@<TRIPOS>ATOM
      1 C          63.1306   89.9356   12.7099 C.ar    1  UNL1        0.1386
      2 C          63.6709   91.1526   12.0195 C.ar    1  UNL1        0.0384
      3 C          64.8673   91.8635   12.5793 C.ar    1  UNL1        0.0207
      4 C          65.5233   91.3573   13.8296 C.ar    1  UNL1        0.0657
      5 C          64.9829   90.1402   14.5202 C.ar    1  UNL1        0.0207
      6 C          63.7866   89.4293   13.9603 C.ar    1  UNL1        0.0384
      7 N          66.7196   92.0681   14.3895 N.ar    1  UNL1       -0.2864
      8 C          66.7299   92.9635   15.5929 C.ar    1  UNL1        0.1022
      9 C          68.1324   93.4572   15.7914 C.ar    1  UNL1        0.1196
     10 N          68.9889   92.8669   14.7107 N.ar    1  UNL1       -0.2220
     11 C          68.1158   92.0084   13.8443 C.ar    1  UNL1        0.1828
     12 O          61.9342   89.2248   12.1500 O.3     1  UNL1       -0.4754
     13 C          62.0959   88.2768   10.9987 C.3     1  UNL1        0.2058
     14 C          61.1664   87.1086   10.8530 C.3     1  UNL1        0.0536
     15 C          61.5813   85.9166   10.0424 C.3     1  UNL1        0.0496
     16 C          64.4435   82.9054   11.7716 C.ar    1  UNL1        0.0207
     17 C          63.5908   83.7385   12.6820 C.ar    1  UNL1        0.0028
     18 C          62.6368   84.7423   12.1056 C.ar    1  UNL1        0.0147
     19 C          62.5354   84.9129   10.6188 C.ar    1  UNL1        0.0591
     20 N          63.3881   84.0798    9.7084 N.ar    1  UNL1       -0.2481
     21 C          64.3422   83.0761   10.2849 C.ar    1  UNL1        0.0984
@<TRIPOS>BOND
     1    16    17   ar
     2    17    18   ar
     3    18    19   ar
     4    19    15    1
     5    15    14    1
     6    14    13    1
     7    13    12    1
     8    12     1    1
     9     1     2   ar
    10     2     3   ar
    11     3     4   ar
    12     4     7    1
    13     7     8   ar
    14     8     9   ar
    15     9    10   ar
    16    10    11   ar
    17     4     5   ar
    18     5     6   ar
    19    19    20   ar
    20    20    21   ar
    21    21    16   ar
    22     6     1   ar
    23    11     7   ar
@<TRIPOS>MOLECULE
*****
 21 23 0 0 0
SMALL
GASTEIGER

@<TRIPOS>ATOM
      1 C          62.4408   89.7008   10.6527 C.ar    1  UNL1        0.1386
      2 C          63.0736   90.9464   10.1069 C.ar    1  UNL1        0.0384
      3 C          64.0280   91.7356   10.9532 C.ar    1  UNL1        0.0207
      4 C          64.3497   91.2791   12.3453 C.ar    1  UNL1        0.0657
      5 C          63.7170   90.0334   12.8912 C.ar    1  UNL1        0.0207
      6 C          62.7625   89.2442   12.0449 C.ar    1  UNL1        0.0384
      7 N          65.3042   92.0682   13.1916 N.ar    1  UNL1       -0.2864
      8 C          65.6680   91.7755   14.6171 C.ar    1  UNL1        0.1022
      9 C          66.6511   92.8150   15.0675 C.ar    1  UNL1        0.1196
     10 N          66.8949   93.7503   13.9204 N.ar    1  UNL1       -0.2220
     11 C          66.0625   93.2887   12.7611 C.ar    1  UNL1        0.1828
     12 O          61.4864   88.9116    9.8064 O.3     1  UNL1       -0.4754
     13 C          60.9182   87.6220   10.3204 C.3     1  UNL1        0.2058
     14 C          61.0712   86.3630    9.5193 C.3     1  UNL1        0.0536
     15 C          62.4244   85.7364    9.3581 C.3     1  UNL1        0.0496
     16 C          63.8316   82.6330   12.2972 C.ar    1  UNL1        0.0207
     17 C          64.3092   82.5910   10.8759 C.ar    1  UNL1        0.0028
     18 C          63.8401   83.6255    9.8962 C.ar    1  UNL1        0.0147
     19 C          62.8935   84.7019   10.3378 C.ar    1  UNL1        0.0591
     20 N          62.4159   84.7439   11.7591 N.ar    1  UNL1       -0.2481
     21 C          62.8849   83.7094   12.7388 C.ar    1  UNL1        0.0984
@<TRIPOS>BOND
     1    16    17   ar
     2    17    18   ar
     3    18    19   ar
     4    19    15    1
     5    15    14    1
     6    14    13    1
     7    13    12    1
     8    12     1    1
     9     1     2   ar
    10     2     3   ar
    11     3     4   ar
    12     4     7    1
    13     7     8   ar
    14     8     9   ar
    15     9    10   ar
    16    10    11   ar
    17     4     5   ar
    18     5     6   ar
    19    19    20   ar
    20    20    21   ar
    21    21    16   ar
    22     6     1   ar
    23    11     7   ar
@<TRIPOS>MOLECULE
*****
 21 23 0 0 0
SMALL
GASTEIGER

@<TRIPOS>ATOM
      1 C          62.9979   90.3258   12.9566 C.ar    1  UNL1        0.1386
      2 C          63.4312   90.0680   14.3693 C.ar    1  UNL1        0.0384
      3 C          64.7026   90.6732   14.8861 C.ar    1  UNL1        0.0207
      4 C          65.5408   91.5362   13.9902 C.ar    1  UNL1        0.0657
      5 C          65.1075   91.7940   12.5774 C.ar    1  UNL1        0.0207
      6 C          63.8361   91.1888   12.0606 C.ar    1  UNL1        0.0384
      7 N          66.8123   92.1414   14.5070 N.ar    1  UNL1       -0.2864
      8 C          66.9535   92.9681   15.7506 C.ar    1  UNL1        0.1022
      9 C          68.3943   93.3638   15.8831 C.ar    1  UNL1        0.1196
     10 N          69.1436   92.7816   14.7214 N.ar    1  UNL1       -0.2220
     11 C          68.1658   92.0262   13.8709 C.ar    1  UNL1        0.1828
     12 O          61.7264   89.7206   12.4398 O.3     1  UNL1       -0.4754
     13 C          61.7734   88.7044   11.3374 C.3     1  UNL1        0.2058
     14 C          62.5659   87.4430   11.5134 C.3     1  UNL1        0.0536
     15 C          61.9803   86.1255   11.0998 C.3     1  UNL1        0.0496
     16 C          61.4060   85.1891    6.7359 C.ar    1  UNL1        0.0207
     17 C          62.7119   84.8768    7.4044 C.ar    1  UNL1        0.0028
     18 C          62.9033   85.1890    8.8590 C.ar    1  UNL1        0.0147
     19 C          61.7888   85.8134    9.6451 C.ar    1  UNL1        0.0591
     20 N          60.4829   86.1256    8.9766 N.ar    1  UNL1       -0.2481
     21 C          60.2915   85.8135    7.5220 C.ar    1  UNL1        0.0984
@<TRIPOS>BOND
     1    16    17   ar
     2    17    18   ar
     3    18    19   ar
     4    19    15    1
     5    15    14    1
     6    14    13    1
     7    13    12    1
     8    12     1    1
     9     1     2   ar
    10     2     3   ar
    11     3     4   ar
    12     4     7    1
    13     7     8   ar
    14     8     9   ar
    15     9    10   ar
    16    10    11   ar
    17     4     5   ar
    18     5     6   ar
    19    19    20   ar
    20    20    21   ar
    21    21    16   ar
    22     6     1   ar
    23    11     7   ar
@<TRIPOS>MOLECULE
*****
 21 23 0 0 0
SMALL
GASTEIGER

@<TRIPOS>ATOM
      1 C          63.0542   90.4091   10.7701 C.ar    1  UNL1        0.1386
      2 C          63.9048   91.5939   10.4200 C.ar    1  UNL1        0.0384
      3 C          64.7848   92.2193   11.4614 C.ar    1  UNL1        0.0207
      4 C          64.8143   91.6599   12.8528 C.ar    1  UNL1        0.0657
      5 C          63.9636   90.4749   13.2029 C.ar    1  UNL1        0.0207
      6 C          63.0836   89.8496   12.1615 C.ar    1  UNL1        0.0384
      7 N          65.6943   92.2852   13.8942 N.ar    1  UNL1       -0.2864
      8 C          65.8038   91.8584   15.3280 C.ar    1  UNL1        0.1022
      9 C          66.7965   92.7566   16.0046 C.ar    1  UNL1        0.1196
     10 N          67.3005   93.7386   14.9889 N.ar    1  UNL1       -0.2220
     11 C          66.6193   93.4473   13.6847 C.ar    1  UNL1        0.1828
     12 O          62.1742   89.7837    9.7287 O.3     1  UNL1       -0.4754
     13 C          60.7075   89.6109    9.9916 C.3     1  UNL1        0.2058
     14 C          59.8585   88.8382    9.0261 C.3     1  UNL1        0.0536
     15 C          59.7316   87.3500    9.1636 C.3     1  UNL1        0.0496
     16 C          62.6741   84.6408    7.1015 C.ar    1  UNL1        0.0207
     17 C          63.0874   85.4045    8.3246 C.ar    1  UNL1        0.0028
     18 C          62.1065   86.3076    9.0120 C.ar    1  UNL1        0.0147
     19 C          60.7124   86.4469    8.4763 C.ar    1  UNL1        0.0591
     20 N          60.2992   85.6832    7.2532 N.ar    1  UNL1       -0.2481
     21 C          61.2800   84.7802    6.5658 C.ar    1  UNL1        0.0984
@<TRIPOS>BOND
     1    16    17   ar
     2    17    18   ar
     3    18    19   ar
     4    19    15    1
     5    15    14    1
     6    14    13    1
     7    13    12    1
     8    12     1    1
     9     1     2   ar
    10     2     3   ar
    11     3     4   ar
    12     4     7    1
    13     7     8   ar
    14     8     9   ar
    15     9    10   ar
    16    10    11   ar
    17     4     5   ar
    18     5     6   ar
    19    19    20   ar
    20    20    21   ar
    21    21    16   ar
    22     6     1   ar
    23    11     7   ar
