@<TRIPOS>MOLECULE
*****
 55 59 0 0 0
SMALL
GASTEIGER

@<TRIPOS>ATOM
      1 C          61.8189   86.9950   11.9226 C.3     1  UNL1        0.0760
      2 C          62.8970   89.1014   12.9953 C.2     1  UNL1        0.2384
      3 O          61.5554   89.7715   13.0278 O.2     1  UNL1       -0.2734
      4 N          63.0287   87.7132   12.4428 N.am    1  UNL1       -0.3044
      5 H          63.9092   87.2733   12.4215 H       1  UNL1        0.1494
      6 C          64.1068   89.8195   13.5155 C.3     1  UNL1        0.1293
      7 C          63.6416   90.8055   12.4852 C.3     1  UNL1        0.0443
      8 C          64.4018   92.0806   12.2702 C.3     1  UNL1        0.0743
      9 N          65.6273   92.3697   13.0853 N.3     1  UNL1       -0.2714
     10 C          66.3876   93.6448   12.8703 C.3     1  UNL1        0.0896
     11 C          66.0926   91.3837   14.1156 C.3     1  UNL1        0.0743
     12 C          65.3323   90.1086   14.3306 C.3     1  UNL1        0.0443
     13 N          63.4938   87.3236   16.5394 N.am    1  UNL1       -0.2567
     14 C          62.7907   87.2984   17.8642 C.3     1  UNL1        0.1168
     15 C          63.4488   88.5590   15.6899 C.2     1  UNL1        0.3046
     16 O          62.7007   89.7691   16.1650 O.2     1  UNL1       -0.2526
     17 N          64.1519   88.5842   14.3651 N.am    1  UNL1       -0.2840
     18 H          64.6429   87.7899   14.0532 H       1  UNL1        0.1513
     19 C          64.2420   86.1135   16.0643 C.3     1  UNL1        0.1413
     20 C          62.9726   82.7504   14.6001 C.ar    1  UNL1        0.0875
     21 N          64.0830   83.7147   14.8957 N.ar    1  UNL1       -0.2453
     22 C          63.4902   84.9061   15.5879 C.ar    1  UNL1        0.0858
     23 C          62.0135   84.6782   15.7200 C.ar    1  UNL1        0.0530
     24 S          61.6936   83.3458   15.1095 S.2     1  UNL1       -0.0705
     25 C          64.4801   80.8922   13.5879 C.3     1  UNL1        0.0069
     26 C          63.1161   81.4236   13.9152 C.3     1  UNL1        0.0465
     27 C          61.8956   80.6282   13.5578 C.3     1  UNL1        0.0069
     28 C          60.7966   87.7368   11.1135 C.3     1  UNL1        0.0216
     29 C          61.1928   88.3932    9.8243 C.3     1  UNL1        0.0217
     30 C          60.2292   88.4321    8.6754 C.3     1  UNL1        0.0792
     31 N          59.7099   89.7479    8.1763 N.am    1  UNL1       -0.2720
     32 C          59.2954   89.8954    6.7422 C.2     1  UNL1        0.4019
     33 O          59.4002   88.7271    5.8073 O.2     1  UNL1       -0.2264
     34 H          59.6412   90.5147    8.7899 H       1  UNL1        0.1527
     35 O          58.7762   91.2112    6.2431 O.3     1  UNL1       -0.4291
     36 C          58.7096   91.4808    4.7691 C.3     1  UNL1        0.2447
     37 C          59.9478   91.8814    4.0232 C.ar    1  UNL1        0.0714
     38 C          61.3387   91.3900    4.2951 C.ar    1  UNL1        0.1053
     39 N          62.2630   92.0487    3.3144 N.ar    1  UNL1       -0.2350
     40 C          61.4434   92.9473    2.4365 C.ar    1  UNL1        0.1343
     41 S          60.0125   92.8439    2.8746 S.2     1  UNL1       -0.0652
     42 C          59.7849   87.1553    8.0255 C.3     1  UNL1        0.0460
     43 C          60.8021   86.1462    7.5815 C.ar    1  UNL1       -0.0205
     44 C          62.0973   86.0095    8.3256 C.ar    1  UNL1       -0.0042
     45 C          63.1144   85.0004    7.8816 C.ar    1  UNL1       -0.0003
     46 C          62.8363   84.1280    6.6935 C.ar    1  UNL1       -0.0000
     47 C          61.5411   84.2647    5.9494 C.ar    1  UNL1       -0.0003
     48 C          60.5240   85.2738    6.3934 C.ar    1  UNL1       -0.0042
     49 C          61.6313   85.5351   12.2116 C.3     1  UNL1        0.0459
     50 C          62.5581   84.5249   11.6027 C.ar    1  UNL1       -0.0205
     51 C          62.0003   83.3168   10.9104 C.ar    1  UNL1       -0.0042
     52 C          62.9270   82.3067   10.3015 C.ar    1  UNL1       -0.0003
     53 C          64.4115   82.5046   10.3848 C.ar    1  UNL1       -0.0000
     54 C          64.9694   83.7128   11.0772 C.ar    1  UNL1       -0.0003
     55 C          64.0427   84.7229   11.6861 C.ar    1  UNL1       -0.0042
@<TRIPOS>BOND
     1    25    26    1
     2    26    27    1
     3    26    20    1
     4    20    21   ar
     5    21    22   ar
     6    22    19    1
     7    19    13    1
     8    13    14    1
     9    13    15   am
    10    15    16    2
    11    15    17   am
    12    17     6    1
    13     6     2    1
    14     2     3    2
    15     2     4   am
    16     4     1    1
    17     1    28    1
    18    28    29    1
    19    30    29    1
    20    30    42    1
    21    42    43    1
    22    43    44   ar
    23    44    45   ar
    24    45    46   ar
    25    46    47   ar
    26    47    48   ar
    27    30    31    1
    28    31    32   am
    29    32    33    2
    30    32    35    1
    31    35    36    1
    32    36    37    1
    33    37    38   ar
    34    38    39   ar
    35    39    40   ar
    36    40    41   ar
    37     1    49    1
    38    49    50    1
    39    50    51   ar
    40    51    52   ar
    41    52    53   ar
    42    53    54   ar
    43    54    55   ar
    44     6     7    1
    45     7     8    1
    46     8     9    1
    47     9    10    1
    48     9    11    1
    49    11    12    1
    50    22    23   ar
    51    23    24   ar
    52    24    20   ar
    53    12     6    1
    54    48    43   ar
    55    41    37   ar
    56    55    50   ar
    57    17    18    1
    58     4     5    1
    59    31    34    1
@<TRIPOS>MOLECULE
*****
 55 59 0 0 0
SMALL
GASTEIGER

@<TRIPOS>ATOM
      1 C          63.7241   87.8342   13.0563 C.3     1  UNL1        0.0760
      2 C          62.5028   85.6731   12.2893 C.2     1  UNL1        0.2384
      3 O          61.2381   86.4562   12.0969 O.2     1  UNL1       -0.2734
      4 N          63.7459   86.3621   12.7690 N.am    1  UNL1       -0.3044
      5 H          64.5760   85.8482   12.8953 H       1  UNL1        0.1494
      6 C          62.5246   84.2010   12.0021 C.3     1  UNL1        0.1293
      7 C          63.1428   84.2089   13.3687 C.3     1  UNL1        0.0443
      8 C          63.5655   82.9195   14.0081 C.3     1  UNL1        0.0743
      9 N          63.3699   81.6223   13.2809 N.3     1  UNL1       -0.2714
     10 C          63.7926   80.3329   13.9203 C.3     1  UNL1        0.0896
     11 C          62.7517   81.6144   11.9143 C.3     1  UNL1        0.0743
     12 C          62.3291   82.9038   11.2748 C.3     1  UNL1        0.0443
     13 N          62.0438   85.1638    8.1821 N.am    1  UNL1       -0.2567
     14 C          62.8145   85.1196    6.8960 C.3     1  UNL1        0.1168
     15 C          62.6695   84.6603    9.4490 C.2     1  UNL1        0.3046
     16 O          64.0659   84.1128    9.4298 O.2     1  UNL1       -0.2526
     17 N          61.8989   84.7045   10.7352 N.am    1  UNL1       -0.2840
     18 H          60.9824   85.0638   10.7478 H       1  UNL1        0.1513
     19 C          60.6475   85.7113    8.2014 C.3     1  UNL1        0.1413
     20 C          59.8133   88.8981   10.2542 C.ar    1  UNL1        0.0875
     21 N          59.9529   87.4085   10.1462 N.ar    1  UNL1       -0.2453
     22 C          60.3875   87.0838    8.7477 C.ar    1  UNL1        0.0858
     23 C          60.5165   88.3728    7.9914 C.ar    1  UNL1        0.0530
     24 S          60.1617   89.4941    8.9225 S.2     1  UNL1       -0.0705
     25 C          58.9528   88.9187   12.7055 C.3     1  UNL1        0.0069
     26 C          59.3983   89.6582   11.4789 C.3     1  UNL1        0.0465
     27 C          59.4288   91.1579   11.4769 C.3     1  UNL1        0.0069
     28 C          63.2227   88.7936   12.0180 C.3     1  UNL1        0.0216
     29 C          62.9792   90.2291   12.3786 C.3     1  UNL1        0.0217
     30 C          64.0516   91.2525   12.1484 C.3     1  UNL1        0.0792
     31 N          64.9971   91.6103   13.2565 N.am    1  UNL1       -0.2720
     32 C          64.5266   91.5875   14.6807 C.2     1  UNL1        0.4019
     33 O          63.1105   91.2070   14.9966 O.2     1  UNL1       -0.2264
     34 H          65.9266   91.8600   13.0491 H       1  UNL1        0.1527
     35 O          65.4721   91.9453   15.7888 O.3     1  UNL1       -0.4291
     36 C          66.4936   93.0244   15.5839 C.3     1  UNL1        0.2447
     37 C          67.8086   92.6999   14.9393 C.ar    1  UNL1        0.0714
     38 C          67.9985   91.9734   13.6408 C.ar    1  UNL1        0.1053
     39 N          69.4718   91.8694   13.3790 N.ar    1  UNL1       -0.2350
     40 C          70.1925   92.5316   14.5157 C.ar    1  UNL1        0.1343
     41 S          69.1645   93.0448   15.4801 S.2     1  UNL1       -0.0652
     42 C          64.1782   91.9181   10.8102 C.3     1  UNL1        0.0460
     43 C          65.4017   92.7231   10.4857 C.ar    1  UNL1       -0.0205
     44 C          66.6833   92.0296   10.1301 C.ar    1  UNL1       -0.0042
     45 C          67.9066   92.8346    9.8056 C.ar    1  UNL1       -0.0003
     46 C          67.8483   94.3332    9.8368 C.ar    1  UNL1       -0.0000
     47 C          66.5667   95.0267   10.1924 C.ar    1  UNL1       -0.0003
     48 C          65.3434   94.2217   10.5168 C.ar    1  UNL1       -0.0042
     49 C          64.2038   88.3468   14.3819 C.3     1  UNL1        0.0459
     50 C          63.7302   87.7026   15.6510 C.ar    1  UNL1       -0.0205
     51 C          63.1445   88.5440   16.7460 C.ar    1  UNL1       -0.0042
     52 C          62.6709   87.8997   18.0151 C.ar    1  UNL1       -0.0003
     53 C          62.7831   86.4141   18.1893 C.ar    1  UNL1       -0.0000
     54 C          63.3689   85.5727   17.0943 C.ar    1  UNL1       -0.0003
     55 C          63.8425   86.2169   15.8252 C.ar    1  UNL1       -0.0042
@<TRIPOS>BOND
     1    25    26    1
     2    26    27    1
     3    26    20    1
     4    20    21   ar
     5    21    22   ar
     6    22    19    1
     7    19    13    1
     8    13    14    1
     9    13    15   am
    10    15    16    2
    11    15    17   am
    12    17     6    1
    13     6     2    1
    14     2     3    2
    15     2     4   am
    16     4     1    1
    17     1    28    1
    18    28    29    1
    19    30    29    1
    20    30    42    1
    21    42    43    1
    22    43    44   ar
    23    44    45   ar
    24    45    46   ar
    25    46    47   ar
    26    47    48   ar
    27    30    31    1
    28    31    32   am
    29    32    33    2
    30    32    35    1
    31    35    36    1
    32    36    37    1
    33    37    38   ar
    34    38    39   ar
    35    39    40   ar
    36    40    41   ar
    37     1    49    1
    38    49    50    1
    39    50    51   ar
    40    51    52   ar
    41    52    53   ar
    42    53    54   ar
    43    54    55   ar
    44     6     7    1
    45     7     8    1
    46     8     9    1
    47     9    10    1
    48     9    11    1
    49    11    12    1
    50    22    23   ar
    51    23    24   ar
    52    24    20   ar
    53    12     6    1
    54    48    43   ar
    55    41    37   ar
    56    55    50   ar
    57    17    18    1
    58     4     5    1
    59    31    34    1
@<TRIPOS>MOLECULE
*****
 55 59 0 0 0
SMALL
GASTEIGER

@<TRIPOS>ATOM
      1 C          62.5678   85.5807   10.6655 C.3     1  UNL1        0.0760
      2 C          63.2804   83.1248   11.1246 C.2     1  UNL1        0.2384
      3 O          64.6000   83.3836   10.4601 O.2     1  UNL1       -0.2734
      4 N          62.2643   84.2234   11.2273 N.am    1  UNL1       -0.3044
      5 H          61.3982   84.0536   11.6635 H       1  UNL1        0.1494
      6 C          62.9769   81.7676   11.6864 C.3     1  UNL1        0.1293
      7 C          63.2198   81.4069   10.2508 C.3     1  UNL1        0.0443
      8 C          63.1115   79.9779    9.8079 C.3     1  UNL1        0.0743
      9 N          62.7603   78.9096   10.8005 N.3     1  UNL1       -0.2714
     10 C          62.6519   77.4805   10.3575 C.3     1  UNL1        0.0896
     11 C          62.5173   79.2702   12.2361 C.3     1  UNL1        0.0743
     12 C          62.6257   80.6993   12.6790 C.3     1  UNL1        0.0443
     13 N          63.7349   83.3389   15.2510 N.am    1  UNL1       -0.2567
     14 C          64.7678   83.2460   16.3348 C.3     1  UNL1        0.1168
     15 C          63.8724   82.5068   14.0106 C.2     1  UNL1        0.3046
     16 O          65.0427   81.5818   13.8539 O.2     1  UNL1       -0.2526
     17 N          62.8394   82.5996   12.9269 N.am    1  UNL1       -0.2840
     18 H          62.0712   83.2067   13.0297 H       1  UNL1        0.1513
     19 C          62.5645   84.2638   15.4078 C.3     1  UNL1        0.1413
     20 C          63.3753   87.9908   16.1272 C.ar    1  UNL1        0.0875
     21 N          63.3604   86.8076   15.2054 N.ar    1  UNL1       -0.2453
     22 C          62.7692   85.6473   15.9499 C.ar    1  UNL1        0.0858
     23 C          62.4187   86.1135   17.3319 C.ar    1  UNL1        0.0530
     24 S          62.7933   87.5619   17.4414 S.2     1  UNL1       -0.0705
     25 C          63.4148   90.5482   16.5833 C.3     1  UNL1        0.0069
     26 C          63.8830   89.3622   15.7933 C.3     1  UNL1        0.0465
     27 C          64.8591   89.5475   14.6694 C.3     1  UNL1        0.0069
     28 C          62.1901   86.8122   11.4341 C.3     1  UNL1        0.0216
     29 C          62.6592   88.1592   10.9700 C.3     1  UNL1        0.0217
     30 C          61.9832   89.4018   11.4691 C.3     1  UNL1        0.0792
     31 N          62.7197   90.3443   12.3742 N.am    1  UNL1       -0.2720
     32 C          63.6144   91.3981   11.7918 C.2     1  UNL1        0.4019
     33 O          63.7724   91.5094   10.3044 O.2     1  UNL1       -0.2264
     34 H          62.6160   90.2712   13.3505 H       1  UNL1        0.1527
     35 O          64.3509   92.3406   12.6969 O.3     1  UNL1       -0.4291
     36 C          65.8434   92.4573   12.6039 C.3     1  UNL1        0.2447
     37 C          66.4653   93.2707   11.5077 C.ar    1  UNL1        0.0714
     38 C          66.4291   94.7656   11.3900 C.ar    1  UNL1        0.1053
     39 N          67.1740   95.1508   10.1463 N.ar    1  UNL1       -0.2350
     40 C          67.6706   93.8940    9.4954 C.ar    1  UNL1        0.1343
     41 S          67.2326   92.7320   10.3368 S.2     1  UNL1       -0.0652
     42 C          60.5708   89.7018   11.0631 C.3     1  UNL1        0.0460
     43 C          60.0317   89.1645    9.7705 C.ar    1  UNL1       -0.0205
     44 C          60.2487   89.9227    8.4945 C.ar    1  UNL1       -0.0042
     45 C          59.7097   89.3854    7.2020 C.ar    1  UNL1       -0.0003
     46 C          58.9536   88.0900    7.1854 C.ar    1  UNL1       -0.0000
     47 C          58.7366   87.3318    8.4614 C.ar    1  UNL1       -0.0003
     48 C          59.2756   87.8691    9.7539 C.ar    1  UNL1       -0.0042
     49 C          63.2491   85.7065    9.3350 C.3     1  UNL1        0.0459
     50 C          62.5559   85.2375    8.0902 C.ar    1  UNL1       -0.0205
     51 C          61.0640   85.3439    7.9771 C.ar    1  UNL1       -0.0042
     52 C          60.3708   84.8749    6.7323 C.ar    1  UNL1       -0.0003
     53 C          61.1696   84.2994    5.6006 C.ar    1  UNL1       -0.0000
     54 C          62.6616   84.1929    5.7136 C.ar    1  UNL1       -0.0003
     55 C          63.3547   84.6620    6.9584 C.ar    1  UNL1       -0.0042
@<TRIPOS>BOND
     1    25    26    1
     2    26    27    1
     3    26    20    1
     4    20    21   ar
     5    21    22   ar
     6    22    19    1
     7    19    13    1
     8    13    14    1
     9    13    15   am
    10    15    16    2
    11    15    17   am
    12    17     6    1
    13     6     2    1
    14     2     3    2
    15     2     4   am
    16     4     1    1
    17     1    28    1
    18    28    29    1
    19    30    29    1
    20    30    42    1
    21    42    43    1
    22    43    44   ar
    23    44    45   ar
    24    45    46   ar
    25    46    47   ar
    26    47    48   ar
    27    30    31    1
    28    31    32   am
    29    32    33    2
    30    32    35    1
    31    35    36    1
    32    36    37    1
    33    37    38   ar
    34    38    39   ar
    35    39    40   ar
    36    40    41   ar
    37     1    49    1
    38    49    50    1
    39    50    51   ar
    40    51    52   ar
    41    52    53   ar
    42    53    54   ar
    43    54    55   ar
    44     6     7    1
    45     7     8    1
    46     8     9    1
    47     9    10    1
    48     9    11    1
    49    11    12    1
    50    22    23   ar
    51    23    24   ar
    52    24    20   ar
    53    12     6    1
    54    48    43   ar
    55    41    37   ar
    56    55    50   ar
    57    17    18    1
    58     4     5    1
    59    31    34    1
@<TRIPOS>MOLECULE
*****
 55 59 0 0 0
SMALL
GASTEIGER

@<TRIPOS>ATOM
      1 C          63.8312   88.0105   13.2698 C.3     1  UNL1        0.0760
      2 C          62.5828   85.9107   12.3853 C.2     1  UNL1        0.2384
      3 O          61.3523   86.7379   12.1586 O.2     1  UNL1       -0.2734
      4 N          63.8223   86.5471   12.9409 N.am    1  UNL1       -0.3044
      5 H          64.6300   86.0042   13.0897 H       1  UNL1        0.1494
      6 C          62.5739   84.4473   12.0564 C.3     1  UNL1        0.1293
      7 C          63.2184   84.4061   13.4102 C.3     1  UNL1        0.0443
      8 C          63.6313   83.0922   14.0047 C.3     1  UNL1        0.0743
      9 N          63.3996   81.8196   13.2453 N.3     1  UNL1       -0.2714
     10 C          63.8125   80.5057   13.8397 C.3     1  UNL1        0.0896
     11 C          62.7551   81.8608   11.8914 C.3     1  UNL1        0.0743
     12 C          62.3423   83.1747   11.2970 C.3     1  UNL1        0.0443
     13 N          61.9669   85.3837    8.2479 N.am    1  UNL1       -0.2567
     14 C          62.6427   85.2211    6.9186 C.3     1  UNL1        0.1168
     15 C          62.6083   84.8342    9.4875 C.2     1  UNL1        0.3046
     16 O          63.9254   84.1222    9.3979 O.2     1  UNL1       -0.2526
     17 N          61.9325   84.9968   10.8168 N.am    1  UNL1       -0.2840
     18 H          61.0680   85.4641   10.8756 H       1  UNL1        0.1513
     19 C          60.6497   86.0957    8.3375 C.3     1  UNL1        0.1413
     20 C          59.8567   89.1320   10.6217 C.ar    1  UNL1        0.0875
     21 N          59.6133   87.7148   10.1949 N.ar    1  UNL1       -0.2453
     22 C          60.5518   87.4027    9.0671 C.ar    1  UNL1        0.0858
     23 C          61.3752   88.6270    8.7970 C.ar    1  UNL1        0.0530
     24 S          60.9456   89.6959    9.7578 S.2     1  UNL1       -0.0705
     25 C          58.6143   89.0993   12.9032 C.3     1  UNL1        0.0069
     26 C          59.1374   89.8580   11.7197 C.3     1  UNL1        0.0465
     27 C          58.9412   91.3427   11.6341 C.3     1  UNL1        0.0069
     28 C          63.4299   89.0152   12.2308 C.3     1  UNL1        0.0216
     29 C          63.2542   90.4560   12.6091 C.3     1  UNL1        0.0217
     30 C          64.4359   91.2625   13.0602 C.3     1  UNL1        0.0792
     31 N          64.6848   92.6206   12.4741 N.am    1  UNL1       -0.2720
     32 C          64.5890   92.8266   10.9914 C.2     1  UNL1        0.4019
     33 O          64.2443   91.6745   10.0948 O.2     1  UNL1       -0.2264
     34 H          64.9109   93.3768   13.0626 H       1  UNL1        0.1527
     35 O          64.8378   94.1848   10.4053 O.3     1  UNL1       -0.4291
     36 C          66.2414   94.6387   10.1337 C.3     1  UNL1        0.2447
     37 C          67.2472   93.6747    9.5777 C.ar    1  UNL1        0.0714
     38 C          67.9422   93.7917    8.2536 C.ar    1  UNL1        0.1053
     39 N          68.8591   92.6138    8.1057 N.ar    1  UNL1       -0.2350
     40 C          68.7307   91.7688    9.3384 C.ar    1  UNL1        0.1343
     41 S          67.7345   92.4245   10.2481 S.2     1  UNL1       -0.0652
     42 C          65.3686   90.7108   14.0973 C.3     1  UNL1        0.0460
     43 C          66.5191   91.5389   14.5880 C.ar    1  UNL1       -0.0205
     44 C          67.8097   91.5571   13.8239 C.ar    1  UNL1       -0.0042
     45 C          68.9601   92.3853   14.3145 C.ar    1  UNL1       -0.0003
     46 C          68.8198   93.1952   15.5693 C.ar    1  UNL1       -0.0000
     47 C          67.5292   93.1770   16.3333 C.ar    1  UNL1       -0.0003
     48 C          66.3788   92.3488   15.8427 C.ar    1  UNL1       -0.0042
     49 C          64.2415   88.4693   14.6377 C.3     1  UNL1        0.0459
     50 C          63.7308   87.7539   15.8532 C.ar    1  UNL1       -0.0205
     51 C          63.8417   86.2609   15.9466 C.ar    1  UNL1       -0.0042
     52 C          63.3311   85.5455   17.1621 C.ar    1  UNL1       -0.0003
     53 C          62.7095   86.3230   18.2842 C.ar    1  UNL1       -0.0000
     54 C          62.5985   87.8161   18.1908 C.ar    1  UNL1       -0.0003
     55 C          63.1092   88.5315   16.9753 C.ar    1  UNL1       -0.0042
@<TRIPOS>BOND
     1    25    26    1
     2    26    27    1
     3    26    20    1
     4    20    21   ar
     5    21    22   ar
     6    22    19    1
     7    19    13    1
     8    13    14    1
     9    13    15   am
    10    15    16    2
    11    15    17   am
    12    17     6    1
    13     6     2    1
    14     2     3    2
    15     2     4   am
    16     4     1    1
    17     1    28    1
    18    28    29    1
    19    30    29    1
    20    30    42    1
    21    42    43    1
    22    43    44   ar
    23    44    45   ar
    24    45    46   ar
    25    46    47   ar
    26    47    48   ar
    27    30    31    1
    28    31    32   am
    29    32    33    2
    30    32    35    1
    31    35    36    1
    32    36    37    1
    33    37    38   ar
    34    38    39   ar
    35    39    40   ar
    36    40    41   ar
    37     1    49    1
    38    49    50    1
    39    50    51   ar
    40    51    52   ar
    41    52    53   ar
    42    53    54   ar
    43    54    55   ar
    44     6     7    1
    45     7     8    1
    46     8     9    1
    47     9    10    1
    48     9    11    1
    49    11    12    1
    50    22    23   ar
    51    23    24   ar
    52    24    20   ar
    53    12     6    1
    54    48    43   ar
    55    41    37   ar
    56    55    50   ar
    57    17    18    1
    58     4     5    1
    59    31    34    1
@<TRIPOS>MOLECULE
*****
 55 59 0 0 0
SMALL
GASTEIGER

@<TRIPOS>ATOM
      1 C          62.1400   85.9182   11.1020 C.3     1  UNL1        0.0760
      2 C          63.0418   83.4845   11.2173 C.2     1  UNL1        0.2384
      3 O          63.9903   83.7828   10.0942 O.2     1  UNL1       -0.2734
      4 N          62.1167   84.5522   11.7212 N.am    1  UNL1       -0.3044
      5 H          61.4941   84.3564   12.4583 H       1  UNL1        0.1494
      6 C          63.0185   82.1184   11.8365 C.3     1  UNL1        0.1293
      7 C          62.8384   81.7532   10.3928 C.3     1  UNL1        0.0443
      8 C          62.7004   80.3134    9.9950 C.3     1  UNL1        0.0743
      9 N          62.7425   79.2390   11.0409 N.3     1  UNL1       -0.2714
     10 C          62.6044   77.7993   10.6431 C.3     1  UNL1        0.0896
     11 C          62.9225   79.6043   12.4845 C.3     1  UNL1        0.0743
     12 C          63.0606   81.0440   12.8823 C.3     1  UNL1        0.0443
     13 N          64.7379   84.3933   14.5966 N.am    1  UNL1       -0.2567
     14 C          66.0809   84.9888   14.8996 C.3     1  UNL1        0.1168
     15 C          64.5497   83.5536   13.3680 C.2     1  UNL1        0.3046
     16 O          65.7045   83.3094   12.4425 O.2     1  UNL1       -0.2526
     17 N          63.2067   82.9581   13.0651 N.am    1  UNL1       -0.2840
     18 H          62.4487   83.1185   13.6726 H       1  UNL1        0.1513
     19 C          63.5831   84.6376   15.5222 C.3     1  UNL1        0.1413
     20 C          63.2400   88.4194   16.3260 C.ar    1  UNL1        0.0875
     21 N          63.6030   87.3072   15.3872 N.ar    1  UNL1       -0.2453
     22 C          63.3550   86.0064   16.0918 C.ar    1  UNL1        0.0858
     23 C          62.8387   86.3146   17.4660 C.ar    1  UNL1        0.0530
     24 S          62.7677   87.8060   17.6107 S.2     1  UNL1       -0.0705
     25 C          63.9071   90.8223   17.0544 C.3     1  UNL1        0.0069
     26 C          63.3331   89.8873   16.0316 C.3     1  UNL1        0.0465
     27 C          62.8521   90.4200   14.7145 C.3     1  UNL1        0.0069
     28 C          63.1054   86.9518   11.6016 C.3     1  UNL1        0.0216
     29 C          62.6062   88.3006   12.0277 C.3     1  UNL1        0.0217
     30 C          62.4527   89.3974   11.0160 C.3     1  UNL1        0.0792
     31 N          62.1514   89.0615    9.5855 N.am    1  UNL1       -0.2720
     32 C          60.7804   89.3094    9.0296 C.2     1  UNL1        0.4019
     33 O          59.7107   89.8932    9.9042 O.2     1  UNL1       -0.2264
     34 H          62.8534   88.6783    9.0114 H       1  UNL1        0.1527
     35 O          60.4791   88.9735    7.5991 O.3     1  UNL1       -0.4291
     36 C          59.1403   89.3142    7.0146 C.3     1  UNL1        0.2447
     37 C          59.0318   90.3685    5.9532 C.ar    1  UNL1        0.0714
     38 C          57.7616   90.9965    5.4609 C.ar    1  UNL1        0.1053
     39 N          58.1191   91.9961    4.4011 N.ar    1  UNL1       -0.2350
     40 C          59.6102   91.9858    4.2384 C.ar    1  UNL1        0.1343
     41 S          60.1743   90.9800    5.1976 S.2     1  UNL1       -0.0652
     42 C          62.6005   90.8301   11.4348 C.3     1  UNL1        0.0460
     43 C          63.9662   91.4380   11.5594 C.ar    1  UNL1       -0.0205
     44 C          64.7028   91.3666   12.8641 C.ar    1  UNL1       -0.0042
     45 C          66.0684   91.9745   12.9886 C.ar    1  UNL1       -0.0003
     46 C          66.6974   92.6538   11.8084 C.ar    1  UNL1       -0.0000
     47 C          65.9608   92.7253   10.5037 C.ar    1  UNL1       -0.0003
     48 C          64.5952   92.1174   10.3792 C.ar    1  UNL1       -0.0042
     49 C          61.1978   86.2507    9.9831 C.3     1  UNL1        0.0459
     50 C          61.4300   85.6842    8.6138 C.ar    1  UNL1       -0.0205
     51 C          60.2736   85.4803    7.6805 C.ar    1  UNL1       -0.0042
     52 C          60.5058   84.9138    6.3111 C.ar    1  UNL1       -0.0003
     53 C          61.8944   84.5512    5.8751 C.ar    1  UNL1       -0.0000
     54 C          63.0509   84.7550    6.8084 C.ar    1  UNL1       -0.0003
     55 C          62.8187   85.3216    8.1777 C.ar    1  UNL1       -0.0042
@<TRIPOS>BOND
     1    25    26    1
     2    26    27    1
     3    26    20    1
     4    20    21   ar
     5    21    22   ar
     6    22    19    1
     7    19    13    1
     8    13    14    1
     9    13    15   am
    10    15    16    2
    11    15    17   am
    12    17     6    1
    13     6     2    1
    14     2     3    2
    15     2     4   am
    16     4     1    1
    17     1    28    1
    18    28    29    1
    19    30    29    1
    20    30    42    1
    21    42    43    1
    22    43    44   ar
    23    44    45   ar
    24    45    46   ar
    25    46    47   ar
    26    47    48   ar
    27    30    31    1
    28    31    32   am
    29    32    33    2
    30    32    35    1
    31    35    36    1
    32    36    37    1
    33    37    38   ar
    34    38    39   ar
    35    39    40   ar
    36    40    41   ar
    37     1    49    1
    38    49    50    1
    39    50    51   ar
    40    51    52   ar
    41    52    53   ar
    42    53    54   ar
    43    54    55   ar
    44     6     7    1
    45     7     8    1
    46     8     9    1
    47     9    10    1
    48     9    11    1
    49    11    12    1
    50    22    23   ar
    51    23    24   ar
    52    24    20   ar
    53    12     6    1
    54    48    43   ar
    55    41    37   ar
    56    55    50   ar
    57    17    18    1
    58     4     5    1
    59    31    34    1
@<TRIPOS>MOLECULE
*****
 55 59 0 0 0
SMALL
GASTEIGER

@<TRIPOS>ATOM
      1 C          63.2202   88.1380   13.0174 C.3     1  UNL1        0.0760
      2 C          62.8479   85.8210   11.9027 C.2     1  UNL1        0.2384
      3 O          62.0158   85.3911   13.0742 O.2     1  UNL1       -0.2734
      4 N          63.4502   87.1944   11.8743 N.am    1  UNL1       -0.3044
      5 H          63.9964   87.4766   11.1053 H       1  UNL1        0.1494
      6 C          63.0779   84.8774   10.7595 C.3     1  UNL1        0.1293
      7 C          62.5522   86.0676   10.0132 C.3     1  UNL1        0.0443
      8 C          62.4112   86.0146    8.5207 C.3     1  UNL1        0.0743
      9 N          62.7960   84.7716    7.7747 N.3     1  UNL1       -0.2714
     10 C          62.6551   84.7186    6.2822 C.3     1  UNL1        0.0896
     11 C          63.3218   83.5814    8.5210 C.3     1  UNL1        0.0743
     12 C          63.4627   83.6343   10.0135 C.3     1  UNL1        0.0443
     13 N          63.3524   81.8008   13.2514 N.am    1  UNL1       -0.2567
     14 C          62.7352   80.4491   13.4564 C.3     1  UNL1        0.1168
     15 C          62.9065   82.6632   12.1080 C.2     1  UNL1        0.3046
     16 O          61.8435   82.1741   11.1696 O.2     1  UNL1       -0.2526
     17 N          63.5238   84.0149   11.9029 N.am    1  UNL1       -0.2840
     18 H          64.2215   84.3360   12.5188 H       1  UNL1        0.1513
     19 C          64.4155   82.2900   14.1897 C.3     1  UNL1        0.1413
     20 C          63.3317   85.3941   16.2526 C.ar    1  UNL1        0.0875
     21 N          63.0846   84.0013   15.7534 N.ar    1  UNL1       -0.2453
     22 C          64.2477   83.6038   14.8937 C.ar    1  UNL1        0.0858
     23 C          65.2138   84.7509   14.8616 C.ar    1  UNL1        0.0530
     24 S          64.6476   85.8574   15.7015 S.2     1  UNL1       -0.0705
     25 C          62.9323   86.7178   18.4522 C.3     1  UNL1        0.0069
     26 C          62.4226   86.1847   17.1461 C.3     1  UNL1        0.0465
     27 C          61.0036   86.4423   16.7334 C.3     1  UNL1        0.0069
     28 C          61.9655   88.9581   13.0722 C.3     1  UNL1        0.0216
     29 C          61.9725   90.3736   12.5762 C.3     1  UNL1        0.0217
     30 C          61.8568   90.6542   11.1071 C.3     1  UNL1        0.0792
     31 N          63.0898   90.9185   10.2948 N.am    1  UNL1       -0.2720
     32 C          64.1958   91.7583   10.8618 C.2     1  UNL1        0.4019
     33 O          64.0689   92.3337   12.2412 O.2     1  UNL1       -0.2264
     34 H          63.1731   90.5408    9.3894 H       1  UNL1        0.1527
     35 O          65.4288   92.0226   10.0494 O.3     1  UNL1       -0.4291
     36 C          66.5602   92.8116   10.6386 C.3     1  UNL1        0.2447
     37 C          66.7902   94.2297   10.2072 C.ar    1  UNL1        0.0714
     38 C          67.5259   94.6684    8.9758 C.ar    1  UNL1        0.1053
     39 N          67.5153   96.1680    8.9390 N.ar    1  UNL1       -0.2350
     40 C          66.7729   96.6560   10.1476 C.ar    1  UNL1        0.1343
     41 S          66.3248   95.4581   10.9313 S.2     1  UNL1       -0.0652
     42 C          60.5083   90.6704   10.4506 C.3     1  UNL1        0.0460
     43 C          60.0793   89.5192    9.5897 C.ar    1  UNL1       -0.0205
     44 C          59.9799   89.6908    8.1029 C.ar    1  UNL1       -0.0042
     45 C          59.5509   88.5397    7.2422 C.ar    1  UNL1       -0.0003
     46 C          59.2213   87.2171    7.8683 C.ar    1  UNL1       -0.0000
     47 C          59.3207   87.0455    9.3551 C.ar    1  UNL1       -0.0003
     48 C          59.7497   88.1966   10.2158 C.ar    1  UNL1       -0.0042
     49 C          64.2451   88.2615   14.1058 C.3     1  UNL1        0.0459
     50 C          64.3965   89.5549   14.8502 C.ar    1  UNL1       -0.0205
     51 C          65.4644   90.5295   14.4508 C.ar    1  UNL1       -0.0042
     52 C          65.6158   91.8230   15.1952 C.ar    1  UNL1       -0.0003
     53 C          64.6992   92.1418   16.3389 C.ar    1  UNL1       -0.0000
     54 C          63.6312   91.1672   16.7383 C.ar    1  UNL1       -0.0003
     55 C          63.4798   89.8737   15.9939 C.ar    1  UNL1       -0.0042
@<TRIPOS>BOND
     1    25    26    1
     2    26    27    1
     3    26    20    1
     4    20    21   ar
     5    21    22   ar
     6    22    19    1
     7    19    13    1
     8    13    14    1
     9    13    15   am
    10    15    16    2
    11    15    17   am
    12    17     6    1
    13     6     2    1
    14     2     3    2
    15     2     4   am
    16     4     1    1
    17     1    28    1
    18    28    29    1
    19    30    29    1
    20    30    42    1
    21    42    43    1
    22    43    44   ar
    23    44    45   ar
    24    45    46   ar
    25    46    47   ar
    26    47    48   ar
    27    30    31    1
    28    31    32   am
    29    32    33    2
    30    32    35    1
    31    35    36    1
    32    36    37    1
    33    37    38   ar
    34    38    39   ar
    35    39    40   ar
    36    40    41   ar
    37     1    49    1
    38    49    50    1
    39    50    51   ar
    40    51    52   ar
    41    52    53   ar
    42    53    54   ar
    43    54    55   ar
    44     6     7    1
    45     7     8    1
    46     8     9    1
    47     9    10    1
    48     9    11    1
    49    11    12    1
    50    22    23   ar
    51    23    24   ar
    52    24    20   ar
    53    12     6    1
    54    48    43   ar
    55    41    37   ar
    56    55    50   ar
    57    17    18    1
    58     4     5    1
    59    31    34    1
@<TRIPOS>MOLECULE
*****
 55 59 0 0 0
SMALL
GASTEIGER

@<TRIPOS>ATOM
      1 C          62.1302   86.9028   10.7972 C.3     1  UNL1        0.0760
      2 C          63.0385   84.6882   11.8074 C.2     1  UNL1        0.2384
      3 O          63.6382   84.3289   10.4804 O.2     1  UNL1       -0.2734
      4 N          62.2845   85.9751   11.9659 N.am    1  UNL1       -0.3044
      5 H          61.8909   86.2110   12.8369 H       1  UNL1        0.1494
      6 C          63.1928   83.7606   12.9761 C.3     1  UNL1        0.1293
      7 C          62.6354   82.8086   11.9597 C.3     1  UNL1        0.0443
      8 C          62.4072   81.3715   12.3240 C.3     1  UNL1        0.0743
      9 N          62.7365   80.8864   13.7046 N.3     1  UNL1       -0.2714
     10 C          62.5084   79.4492   14.0689 C.3     1  UNL1        0.0896
     11 C          63.2940   81.8383   14.7210 C.3     1  UNL1        0.0743
     12 C          63.5222   83.2754   14.3567 C.3     1  UNL1        0.0443
     13 N          63.6329   86.7927   15.4984 N.am    1  UNL1       -0.2567
     14 C          63.0653   87.2766   16.7999 C.3     1  UNL1        0.1168
     15 C          63.1291   85.5186   14.8880 C.2     1  UNL1        0.3046
     16 O          62.0576   84.7283   15.5789 O.2     1  UNL1       -0.2526
     17 N          63.6967   85.0347   13.5865 N.am    1  UNL1       -0.2840
     18 H          64.4000   85.5534   13.1331 H       1  UNL1        0.1513
     19 C          64.7044   87.5829   14.8075 C.3     1  UNL1        0.1413
     20 C          65.5402   91.3629   15.0889 C.ar    1  UNL1        0.0875
     21 N          65.9692   89.9349   14.9251 N.ar    1  UNL1       -0.2453
     22 C          64.7392   89.0765   14.9415 C.ar    1  UNL1        0.0858
     23 C          63.5499   89.9740   15.1154 C.ar    1  UNL1        0.0530
     24 S          64.0450   91.3871   15.2065 S.2     1  UNL1       -0.0705
     25 C          66.3232   93.6275   14.0848 C.3     1  UNL1        0.0069
     26 C          66.4471   92.5570   15.1282 C.3     1  UNL1        0.0465
     27 C          67.4779   92.6805   16.2108 C.3     1  UNL1        0.0069
     28 C          63.0837   88.0464   10.6165 C.3     1  UNL1        0.0216
     29 C          62.9972   89.2443   11.5151 C.3     1  UNL1        0.0217
     30 C          62.6910   90.5945   10.9377 C.3     1  UNL1        0.0792
     31 N          61.7586   90.7165    9.7691 N.am    1  UNL1       -0.2720
     32 C          60.3543   90.1993    9.8728 C.2     1  UNL1        0.4019
     33 O          59.8826   89.5600   11.1451 O.2     1  UNL1       -0.2264
     34 H          62.0682   91.1361    8.9340 H       1  UNL1        0.1527
     35 O          59.4219   90.3213    8.7042 O.3     1  UNL1       -0.4291
     36 C          59.8208   89.7736    7.3660 C.3     1  UNL1        0.2447
     37 C          59.5488   90.5641    6.1206 C.ar    1  UNL1        0.0714
     38 C          60.5791   91.0718    5.1559 C.ar    1  UNL1        0.1053
     39 N          59.8657   91.8072    4.0603 N.ar    1  UNL1       -0.2350
     40 C          58.3945   91.7540    4.3479 C.ar    1  UNL1        0.1343
     41 S          58.1987   90.9857    5.6212 S.2     1  UNL1       -0.0652
     42 C          63.3172   91.8225   11.5290 C.3     1  UNL1        0.0460
     43 C          64.6852   92.2529   11.0890 C.ar    1  UNL1       -0.0205
     44 C          65.8948   91.4978   11.5542 C.ar    1  UNL1       -0.0042
     45 C          67.2627   91.9282   11.1141 C.ar    1  UNL1       -0.0003
     46 C          67.4209   93.1137   10.2089 C.ar    1  UNL1       -0.0000
     47 C          66.2112   93.8688    9.7437 C.ar    1  UNL1       -0.0003
     48 C          64.8434   93.4384   10.1837 C.ar    1  UNL1       -0.0042
     49 C          61.0222   86.6867    9.8094 C.3     1  UNL1        0.0459
     50 C          61.2880   85.9403    8.5357 C.ar    1  UNL1       -0.0205
     51 C          60.1608   85.6415    7.5923 C.ar    1  UNL1       -0.0042
     52 C          60.4266   84.8951    6.3186 C.ar    1  UNL1       -0.0003
     53 C          61.8196   84.4475    5.9883 C.ar    1  UNL1       -0.0000
     54 C          62.9469   84.7463    6.9318 C.ar    1  UNL1       -0.0003
     55 C          62.6811   85.4927    8.2054 C.ar    1  UNL1       -0.0042
@<TRIPOS>BOND
     1    25    26    1
     2    26    27    1
     3    26    20    1
     4    20    21   ar
     5    21    22   ar
     6    22    19    1
     7    19    13    1
     8    13    14    1
     9    13    15   am
    10    15    16    2
    11    15    17   am
    12    17     6    1
    13     6     2    1
    14     2     3    2
    15     2     4   am
    16     4     1    1
    17     1    28    1
    18    28    29    1
    19    30    29    1
    20    30    42    1
    21    42    43    1
    22    43    44   ar
    23    44    45   ar
    24    45    46   ar
    25    46    47   ar
    26    47    48   ar
    27    30    31    1
    28    31    32   am
    29    32    33    2
    30    32    35    1
    31    35    36    1
    32    36    37    1
    33    37    38   ar
    34    38    39   ar
    35    39    40   ar
    36    40    41   ar
    37     1    49    1
    38    49    50    1
    39    50    51   ar
    40    51    52   ar
    41    52    53   ar
    42    53    54   ar
    43    54    55   ar
    44     6     7    1
    45     7     8    1
    46     8     9    1
    47     9    10    1
    48     9    11    1
    49    11    12    1
    50    22    23   ar
    51    23    24   ar
    52    24    20   ar
    53    12     6    1
    54    48    43   ar
    55    41    37   ar
    56    55    50   ar
    57    17    18    1
    58     4     5    1
    59    31    34    1
@<TRIPOS>MOLECULE
*****
 55 59 0 0 0
SMALL
GASTEIGER

@<TRIPOS>ATOM
      1 C          62.2690   90.7818   10.9940 C.3     1  UNL1        0.0760
      2 C          64.0041   90.2617   12.8565 C.2     1  UNL1        0.2384
      3 O          63.6804   88.8009   12.7500 O.2     1  UNL1       -0.2734
      4 N          63.2984   91.2521   11.9784 N.am    1  UNL1       -0.3044
      5 H          63.5108   92.2109   12.0483 H       1  UNL1        0.1494
      6 C          65.0335   90.7320   13.8409 C.3     1  UNL1        0.1293
      7 C          64.9275   91.9506   12.9727 C.3     1  UNL1        0.0443
      8 C          65.7635   93.1596   13.2717 C.3     1  UNL1        0.0743
      9 N          66.7056   93.1500   14.4389 N.3     1  UNL1       -0.2714
     10 C          67.5416   94.3590   14.7380 C.3     1  UNL1        0.0896
     11 C          66.8116   91.9314   15.3071 C.3     1  UNL1        0.0743
     12 C          65.9756   90.7224   15.0081 C.3     1  UNL1        0.0443
     13 N          63.6752   87.7731   16.1102 N.am    1  UNL1       -0.2567
     14 C          62.8199   87.5781   17.3270 C.3     1  UNL1        0.1168
     15 C          63.9267   89.1550   15.5840 C.2     1  UNL1        0.3046
     16 O          63.3230   90.3419   16.2744 O.2     1  UNL1       -0.2526
     17 N          64.7820   89.3500   14.3672 N.am    1  UNL1       -0.2840
     18 H          65.1783   88.5710   13.9140 H       1  UNL1        0.1513
     19 C          64.2790   86.5862   15.4198 C.3     1  UNL1        0.1413
     20 C          62.8426   83.0551   14.6891 C.ar    1  UNL1        0.0875
     21 N          63.9324   84.0781   14.5627 N.ar    1  UNL1       -0.2453
     22 C          63.4944   85.3143   15.2907 C.ar    1  UNL1        0.0858
     23 C          62.1339   85.0553   15.8671 C.ar    1  UNL1        0.0530
     24 S          61.7311   83.6590   15.4952 S.2     1  UNL1       -0.0705
     25 C          61.5832   80.8975   13.9762 C.3     1  UNL1        0.0069
     26 C          62.8612   81.6712   14.1108 C.3     1  UNL1        0.0465
     27 C          64.1577   81.0611   13.6672 C.3     1  UNL1        0.0069
     28 C          62.6914   90.0161    9.7753 C.3     1  UNL1        0.0216
     29 C          62.5801   88.5204    9.7534 C.3     1  UNL1        0.0217
     30 C          61.2487   87.8707    9.5180 C.3     1  UNL1        0.0792
     31 N          60.2233   88.5513    8.6605 N.am    1  UNL1       -0.2720
     32 C          59.6161   87.8241    7.4975 C.2     1  UNL1        0.4019
     33 O          60.0345   86.4164    7.1919 O.2     1  UNL1       -0.2264
     34 H          59.9487   89.4752    8.8610 H       1  UNL1        0.1527
     35 O          58.5907   88.5046    6.6400 O.3     1  UNL1       -0.4291
     36 C          58.4145   89.9921    6.7192 C.3     1  UNL1        0.2447
     37 C          58.8881   90.8644    5.5946 C.ar    1  UNL1        0.0714
     38 C          58.0329   91.7770    4.7663 C.ar    1  UNL1        0.1053
     39 N          58.9162   92.4539    3.7606 N.ar    1  UNL1       -0.2350
     40 C          60.3173   91.9597    3.9672 C.ar    1  UNL1        0.1343
     41 S          60.2999   90.9774    5.1007 S.2     1  UNL1       -0.0652
     42 C          60.9428   86.5406   10.1401 C.3     1  UNL1        0.0460
     43 C          61.9732   85.4504   10.1243 C.ar    1  UNL1       -0.0205
     44 C          62.2101   84.6245   11.3538 C.ar    1  UNL1       -0.0042
     45 C          63.2404   83.5345   11.3379 C.ar    1  UNL1       -0.0003
     46 C          64.0337   83.2704   10.0926 C.ar    1  UNL1       -0.0000
     47 C          63.7968   84.0963    8.8631 C.ar    1  UNL1       -0.0003
     48 C          62.7665   85.1863    8.8790 C.ar    1  UNL1       -0.0042
     49 C          60.8171   91.0772   11.2283 C.3     1  UNL1        0.0459
     50 C          60.0102   90.1984   12.1375 C.ar    1  UNL1       -0.0205
     51 C          60.5894   89.7352   13.4412 C.ar    1  UNL1       -0.0042
     52 C          59.7825   88.8564   14.3504 C.ar    1  UNL1       -0.0003
     53 C          58.3963   88.4409   13.9559 C.ar    1  UNL1       -0.0000
     54 C          57.8169   88.9042   12.6521 C.ar    1  UNL1       -0.0003
     55 C          58.6239   89.7829   11.7429 C.ar    1  UNL1       -0.0042
@<TRIPOS>BOND
     1    25    26    1
     2    26    27    1
     3    26    20    1
     4    20    21   ar
     5    21    22   ar
     6    22    19    1
     7    19    13    1
     8    13    14    1
     9    13    15   am
    10    15    16    2
    11    15    17   am
    12    17     6    1
    13     6     2    1
    14     2     3    2
    15     2     4   am
    16     4     1    1
    17     1    28    1
    18    28    29    1
    19    30    29    1
    20    30    42    1
    21    42    43    1
    22    43    44   ar
    23    44    45   ar
    24    45    46   ar
    25    46    47   ar
    26    47    48   ar
    27    30    31    1
    28    31    32   am
    29    32    33    2
    30    32    35    1
    31    35    36    1
    32    36    37    1
    33    37    38   ar
    34    38    39   ar
    35    39    40   ar
    36    40    41   ar
    37     1    49    1
    38    49    50    1
    39    50    51   ar
    40    51    52   ar
    41    52    53   ar
    42    53    54   ar
    43    54    55   ar
    44     6     7    1
    45     7     8    1
    46     8     9    1
    47     9    10    1
    48     9    11    1
    49    11    12    1
    50    22    23   ar
    51    23    24   ar
    52    24    20   ar
    53    12     6    1
    54    48    43   ar
    55    41    37   ar
    56    55    50   ar
    57    17    18    1
    58     4     5    1
    59    31    34    1
@<TRIPOS>MOLECULE
*****
 55 59 0 0 0
SMALL
GASTEIGER

@<TRIPOS>ATOM
      1 C          63.0121   90.5997   10.9761 C.3     1  UNL1        0.0760
      2 C          64.9902   92.1012   11.7395 C.2     1  UNL1        0.2384
      3 O          65.5681   90.9494   12.5072 O.2     1  UNL1       -0.2734
      4 N          63.7122   91.9263   10.9739 N.am    1  UNL1       -0.3044
      5 H          63.3329   92.6823   10.4700 H       1  UNL1        0.1494
      6 C          65.6903   93.4277   11.7373 C.3     1  UNL1        0.1293
      7 C          65.4892   93.2369   10.2631 C.3     1  UNL1        0.0443
      8 C          65.9736   94.2790    9.2990 C.3     1  UNL1        0.0743
      9 N          66.6591   95.5118    9.8090 N.3     1  UNL1       -0.2714
     10 C          67.1435   96.5539    8.8449 C.3     1  UNL1        0.0896
     11 C          66.8602   95.7026   11.2832 C.3     1  UNL1        0.0743
     12 C          66.3758   94.6606   12.2473 C.3     1  UNL1        0.0443
     13 N          66.8835   92.7188   15.4553 N.am    1  UNL1       -0.2567
     14 C          68.1608   92.5499   16.2235 C.3     1  UNL1        0.1168
     15 C          66.9255   92.9888   13.9804 C.2     1  UNL1        0.3046
     16 O          68.2447   93.0898   13.2737 O.2     1  UNL1       -0.2526
     17 N          65.6483   93.1578   13.2122 N.am    1  UNL1       -0.2840
     18 H          64.7824   93.0915   13.6760 H       1  UNL1        0.1513
     19 C          65.5643   92.6179   16.1620 C.3     1  UNL1        0.1413
     20 C          64.0111   89.1366   15.4316 C.ar    1  UNL1        0.0875
     21 N          65.0918   90.1572   15.2308 N.ar    1  UNL1       -0.2453
     22 C          64.7546   91.3591   16.0625 C.ar    1  UNL1        0.0858
     23 C          63.4654   91.0813   16.7773 C.ar    1  UNL1        0.0530
     24 S          63.0059   89.7077   16.3874 S.2     1  UNL1       -0.0705
     25 C          63.9006   87.6627   13.2950 C.3     1  UNL1        0.0069
     26 C          63.9468   87.7825   14.7894 C.3     1  UNL1        0.0465
     27 C          63.9286   86.5483   15.6417 C.3     1  UNL1        0.0069
     28 C          63.0036   89.7541    9.7372 C.3     1  UNL1        0.0216
     29 C          62.8260   88.2686    9.8444 C.3     1  UNL1        0.0217
     30 C          61.4615   87.6636    9.6946 C.3     1  UNL1        0.0792
     31 N          60.4516   88.3057    8.7903 N.am    1  UNL1       -0.2720
     32 C          59.8708   87.5308    7.6447 C.2     1  UNL1        0.4019
     33 O          60.2999   86.1139    7.4035 O.2     1  UNL1       -0.2264
     34 H          60.1700   89.2357    8.9487 H       1  UNL1        0.1527
     35 O          58.8609   88.1729    6.7404 O.3     1  UNL1       -0.4291
     36 C          58.5305   89.6275    6.8982 C.3     1  UNL1        0.2447
     37 C          58.8387   90.5910    5.7907 C.ar    1  UNL1        0.0714
     38 C          57.8462   91.4591    5.0755 C.ar    1  UNL1        0.1053
     39 N          58.5876   92.2602    4.0467 N.ar    1  UNL1       -0.2350
     40 C          60.0384   91.8873    4.1260 C.ar    1  UNL1        0.1343
     41 S          60.1935   90.8557    5.2038 S.2     1  UNL1       -0.0652
     42 C          61.1071   86.4166   10.4492 C.3     1  UNL1        0.0460
     43 C          62.1425   85.3541   10.6706 C.ar    1  UNL1       -0.0205
     44 C          62.4426   84.8775   12.0608 C.ar    1  UNL1       -0.0042
     45 C          63.4780   83.8150   12.2822 C.ar    1  UNL1       -0.0003
     46 C          64.2133   83.2291   11.1134 C.ar    1  UNL1       -0.0000
     47 C          63.9132   83.7058    9.7232 C.ar    1  UNL1       -0.0003
     48 C          62.8778   84.7682    9.5018 C.ar    1  UNL1       -0.0042
     49 C          62.3204   90.1188   12.2172 C.3     1  UNL1        0.0459
     50 C          60.8274   89.9759   12.2362 C.ar    1  UNL1       -0.0205
     51 C          59.9724   90.9328   11.4595 C.ar    1  UNL1       -0.0042
     52 C          58.4794   90.7900   11.4785 C.ar    1  UNL1       -0.0003
     53 C          57.8412   89.6903   12.2742 C.ar    1  UNL1       -0.0000
     54 C          58.6962   88.7333   13.0510 C.ar    1  UNL1       -0.0003
     55 C          60.1892   88.8761   13.0320 C.ar    1  UNL1       -0.0042
@<TRIPOS>BOND
     1    25    26    1
     2    26    27    1
     3    26    20    1
     4    20    21   ar
     5    21    22   ar
     6    22    19    1
     7    19    13    1
     8    13    14    1
     9    13    15   am
    10    15    16    2
    11    15    17   am
    12    17     6    1
    13     6     2    1
    14     2     3    2
    15     2     4   am
    16     4     1    1
    17     1    28    1
    18    28    29    1
    19    30    29    1
    20    30    42    1
    21    42    43    1
    22    43    44   ar
    23    44    45   ar
    24    45    46   ar
    25    46    47   ar
    26    47    48   ar
    27    30    31    1
    28    31    32   am
    29    32    33    2
    30    32    35    1
    31    35    36    1
    32    36    37    1
    33    37    38   ar
    34    38    39   ar
    35    39    40   ar
    36    40    41   ar
    37     1    49    1
    38    49    50    1
    39    50    51   ar
    40    51    52   ar
    41    52    53   ar
    42    53    54   ar
    43    54    55   ar
    44     6     7    1
    45     7     8    1
    46     8     9    1
    47     9    10    1
    48     9    11    1
    49    11    12    1
    50    22    23   ar
    51    23    24   ar
    52    24    20   ar
    53    12     6    1
    54    48    43   ar
    55    41    37   ar
    56    55    50   ar
    57    17    18    1
    58     4     5    1
    59    31    34    1
