@<TRIPOS>MOLECULE
*****
 36 39 0 0 0
SMALL
GASTEIGER

@<TRIPOS>ATOM
      1 C          63.8249   90.0256   15.2272 C.3     1  UNL1        0.0878
      2 C          63.7887   89.2524   13.9423 C.3     1  UNL1        0.0135
      3 C          63.8611   90.7988   16.5120 C.3     1  UNL1        0.0135
      4 C          63.0771   88.9209   15.9130 C.2     1  UNL1        0.2285
      5 O          61.9507   89.2460   16.8488 O.2     1  UNL1       -0.2746
      6 N          63.4556   87.4911   15.6631 N.am    1  UNL1       -0.2792
      7 C          62.7078   86.3864   16.3489 C.3     1  UNL1        0.0951
      8 C          63.0864   84.9566   16.0990 C.3     1  UNL1        0.0410
      9 C          64.2127   84.6316   15.1633 C.3     1  UNL1        0.0724
     10 C          64.9606   85.7363   14.4774 C.3     1  UNL1        0.0410
     11 C          64.5820   87.1660   14.7273 C.3     1  UNL1        0.0951
     12 N          64.5913   83.2018   14.9134 N.pl3   1  UNL1       -0.3339
     13 H          65.1375   82.7149   15.5720 H       1  UNL1        0.1468
     14 C          64.1376   82.5139   13.6600 C.ar    1  UNL1        0.0447
     15 C          63.2419   81.3138   13.7453 C.ar    1  UNL1        0.0166
     16 C          62.7883   80.6259   12.4919 C.ar    1  UNL1        0.0309
     17 C          63.2302   81.1382   11.1532 C.ar    1  UNL1        0.1402
     18 F          62.7765   80.4503    9.8998 F       1  UNL1       -0.2042
     19 C          64.1259   82.3384   11.0678 C.ar    1  UNL1        0.0309
     20 C          64.5796   83.0263   12.3212 C.ar    1  UNL1        0.0166
     21 C          66.0684   93.3397   13.1697 C.ar    1  UNL1       -0.0062
     22 C          66.2852   93.0821   14.6314 C.ar    1  UNL1       -0.0032
     23 C          65.5374   91.9773   15.3173 C.ar    1  UNL1       -0.0041
     24 C          64.5727   91.1303   14.5414 C.ar    1  UNL1       -0.0146
     25 C          64.3559   91.3880   13.0797 C.ar    1  UNL1       -0.0041
     26 C          65.1037   92.4927   12.3939 C.ar    1  UNL1       -0.0032
     27 C          66.8162   94.4445   12.4839 C.3     1  UNL1        0.0992
     28 C          68.8770   91.9468    8.4200 C.3     1  UNL1        0.0186
     29 C          68.1198   93.1147    8.9792 C.3     1  UNL1        0.0702
     30 C          67.8466   93.1957   10.4519 C.3     1  UNL1        0.0882
     31 N          67.0894   94.3636   11.0111 N.3     1  UNL1       -0.2666
     32 C          66.6055   95.4505   10.0977 C.3     1  UNL1        0.0882
     33 C          66.8788   95.3695    8.6251 C.3     1  UNL1        0.0702
     34 C          66.3949   96.4565    7.7116 C.3     1  UNL1        0.0186
     35 N          67.6359   94.2016    8.0658 N.3     1  UNL1       -0.2974
     36 H          68.4590   94.5811    7.5979 H       1  UNL1        0.1232
@<TRIPOS>BOND
     1    29    28    1
     2    29    30    1
     3    30    31    1
     4    31    27    1
     5    27    21    1
     6    21    22   ar
     7    22    23   ar
     8    23    24   ar
     9    24     1    1
    10     1     2    1
    11     1     3    1
    12     1     4    1
    13     4     5    2
    14     4     6   am
    15     6     7    1
    16     7     8    1
    17     8     9    1
    18     9    12    1
    19    12    14    1
    20    14    15   ar
    21    15    16   ar
    22    16    17   ar
    23    17    18    1
    24    17    19   ar
    25    19    20   ar
    26     9    10    1
    27    10    11    1
    28    24    25   ar
    29    25    26   ar
    30    31    32    1
    31    32    33    1
    32    33    34    1
    33    33    35    1
    34    35    29    1
    35    26    21   ar
    36    11     6    1
    37    20    14   ar
    38    12    13    1
    39    35    36    1
@<TRIPOS>MOLECULE
*****
 36 39 0 0 0
SMALL
GASTEIGER

@<TRIPOS>ATOM
      1 C          63.8429   90.0456   15.2190 C.3     1  UNL1        0.0878
      2 C          63.8717   90.8256   16.4998 C.3     1  UNL1        0.0135
      3 C          63.8141   89.2655   13.9381 C.3     1  UNL1        0.0135
      4 C          63.0982   88.9410   15.9084 C.2     1  UNL1        0.2285
      5 O          61.9722   89.2662   16.8447 O.2     1  UNL1       -0.2746
      6 N          63.4792   87.5114   15.6615 N.am    1  UNL1       -0.2792
      7 C          62.7345   86.4069   16.3510 C.3     1  UNL1        0.0951
      8 C          63.1156   84.9773   16.1040 C.3     1  UNL1        0.0410
      9 C          64.2415   84.6522   15.1677 C.3     1  UNL1        0.0724
     10 C          64.9862   85.7567   14.4783 C.3     1  UNL1        0.0410
     11 C          64.6052   87.1863   14.7252 C.3     1  UNL1        0.0951
     12 N          64.6225   83.2226   14.9209 N.pl3   1  UNL1       -0.3339
     13 H          65.1775   82.7409   15.5761 H       1  UNL1        0.1468
     14 C          64.1581   82.5269   13.6758 C.ar    1  UNL1        0.0447
     15 C          63.2456   81.3406   13.7754 C.ar    1  UNL1        0.0166
     16 C          62.7812   80.6449   12.5303 C.ar    1  UNL1        0.0309
     17 C          63.2293   81.1354   11.1855 C.ar    1  UNL1        0.1402
     18 F          62.7649   80.4397    9.9404 F       1  UNL1       -0.2042
     19 C          64.1420   82.3218   11.0858 C.ar    1  UNL1        0.0309
     20 C          64.6064   83.0175   12.3309 C.ar    1  UNL1        0.0166
     21 C          66.0773   93.3591   13.1506 C.ar    1  UNL1       -0.0062
     22 C          65.1203   92.5023   12.3759 C.ar    1  UNL1       -0.0032
     23 C          64.3756   91.3977   13.0653 C.ar    1  UNL1       -0.0041
     24 C          64.5877   91.1501   14.5295 C.ar    1  UNL1       -0.0146
     25 C          65.5446   92.0069   15.3042 C.ar    1  UNL1       -0.0041
     26 C          66.2894   93.1115   14.6147 C.ar    1  UNL1       -0.0032
     27 C          66.8221   94.4637   12.4612 C.3     1  UNL1        0.0992
     28 C          66.4086   96.4461    7.6759 C.3     1  UNL1        0.0186
     29 C          66.8945   95.3669    8.5974 C.3     1  UNL1        0.0702
     30 C          66.6153   95.4549   10.0685 C.3     1  UNL1        0.0882
     31 N          67.1012   94.3756   10.9900 N.3     1  UNL1       -0.2666
     32 C          67.8663   93.2084   10.4403 C.3     1  UNL1        0.0882
     33 C          68.1455   93.1204    8.9692 C.3     1  UNL1        0.0702
     34 C          68.9105   91.9531    8.4195 C.3     1  UNL1        0.0186
     35 N          67.6596   94.1996    8.0477 N.3     1  UNL1       -0.2974
     36 H          67.0559   93.7496    7.3597 H       1  UNL1        0.1232
@<TRIPOS>BOND
     1    29    28    1
     2    29    30    1
     3    30    31    1
     4    31    27    1
     5    27    21    1
     6    21    22   ar
     7    22    23   ar
     8    23    24   ar
     9    24     1    1
    10     1     2    1
    11     1     3    1
    12     1     4    1
    13     4     5    2
    14     4     6   am
    15     6     7    1
    16     7     8    1
    17     8     9    1
    18     9    12    1
    19    12    14    1
    20    14    15   ar
    21    15    16   ar
    22    16    17   ar
    23    17    18    1
    24    17    19   ar
    25    19    20   ar
    26     9    10    1
    27    10    11    1
    28    24    25   ar
    29    25    26   ar
    30    31    32    1
    31    32    33    1
    32    33    34    1
    33    33    35    1
    34    35    29    1
    35    26    21   ar
    36    11     6    1
    37    20    14   ar
    38    12    13    1
    39    35    36    1
@<TRIPOS>MOLECULE
*****
 36 39 0 0 0
SMALL
GASTEIGER

@<TRIPOS>ATOM
      1 C          64.2847   90.1359   14.6037 C.3     1  UNL1        0.0878
      2 C          65.4856   90.0246   15.4955 C.3     1  UNL1        0.0135
      3 C          63.0837   90.2473   13.7119 C.3     1  UNL1        0.0135
      4 C          63.4935   89.2988   15.5645 C.2     1  UNL1        0.2285
      5 O          62.5892   89.9569   16.5641 O.2     1  UNL1       -0.2746
      6 N          63.6067   87.8036   15.5259 N.am    1  UNL1       -0.2792
      7 C          62.8155   86.9665   16.4868 C.3     1  UNL1        0.0951
      8 C          62.9288   85.4712   16.4481 C.3     1  UNL1        0.0410
      9 C          63.8331   84.8131   15.4485 C.3     1  UNL1        0.0724
     10 C          64.6242   85.6503   14.4877 C.3     1  UNL1        0.0410
     11 C          64.5111   87.1455   14.5263 C.3     1  UNL1        0.0951
     12 N          63.9463   83.3179   15.4099 N.pl3   1  UNL1       -0.3339
     13 H          64.2068   82.8229   16.2200 H       1  UNL1        0.1468
     14 C          63.6625   82.5770   14.1369 C.ar    1  UNL1        0.0447
     15 C          64.3374   82.9896   12.8625 C.ar    1  UNL1        0.0166
     16 C          64.0536   82.2486   11.5896 C.ar    1  UNL1        0.0309
     17 C          63.0949   81.0950   11.5910 C.ar    1  UNL1        0.1402
     18 F          62.8111   80.3540   10.3181 F       1  UNL1       -0.2042
     19 C          62.4199   80.6823   12.8655 C.ar    1  UNL1        0.0309
     20 C          62.7037   81.4233   14.1384 C.ar    1  UNL1        0.0166
     21 C          66.6581   92.6473   11.7211 C.ar    1  UNL1       -0.0062
     22 C          67.2415   92.2820   13.0539 C.ar    1  UNL1       -0.0032
     23 C          66.4503   91.4449   14.0148 C.ar    1  UNL1       -0.0041
     24 C          65.0758   90.9731   13.6428 C.ar    1  UNL1       -0.0146
     25 C          64.4926   91.3384   12.3100 C.ar    1  UNL1       -0.0041
     26 C          65.2837   92.1755   11.3492 C.ar    1  UNL1       -0.0032
     27 C          67.4493   93.4845   10.7602 C.3     1  UNL1        0.0992
     28 C          63.5247   96.8560   10.2794 C.3     1  UNL1        0.0186
     29 C          64.8222   96.2930    9.7798 C.3     1  UNL1        0.0702
     30 C          65.4870   95.1703   10.5198 C.3     1  UNL1        0.0882
     31 N          66.7845   94.6073   10.0202 N.3     1  UNL1       -0.2666
     32 C          67.4172   95.1670    8.7807 C.3     1  UNL1        0.0882
     33 C          66.7524   96.2897    8.0408 C.3     1  UNL1        0.0702
     34 C          67.3851   96.8494    6.8012 C.3     1  UNL1        0.0186
     35 N          65.4549   96.8527    8.5403 N.3     1  UNL1       -0.2974
     36 H          64.7761   96.7412    7.7872 H       1  UNL1        0.1232
@<TRIPOS>BOND
     1    29    28    1
     2    29    30    1
     3    30    31    1
     4    31    27    1
     5    27    21    1
     6    21    22   ar
     7    22    23   ar
     8    23    24   ar
     9    24     1    1
    10     1     2    1
    11     1     3    1
    12     1     4    1
    13     4     5    2
    14     4     6   am
    15     6     7    1
    16     7     8    1
    17     8     9    1
    18     9    12    1
    19    12    14    1
    20    14    15   ar
    21    15    16   ar
    22    16    17   ar
    23    17    18    1
    24    17    19   ar
    25    19    20   ar
    26     9    10    1
    27    10    11    1
    28    24    25   ar
    29    25    26   ar
    30    31    32    1
    31    32    33    1
    32    33    34    1
    33    33    35    1
    34    35    29    1
    35    26    21   ar
    36    11     6    1
    37    20    14   ar
    38    12    13    1
    39    35    36    1
@<TRIPOS>MOLECULE
*****
 36 39 0 0 0
SMALL
GASTEIGER

@<TRIPOS>ATOM
      1 C          61.3838   93.1824    2.1867 C.3     1  UNL1        0.0878
      2 C          60.3250   94.2392    2.2966 C.3     1  UNL1        0.0135
      3 C          62.4426   92.1256    2.0767 C.3     1  UNL1        0.0135
      4 C          62.0542   93.9673    1.0983 C.2     1  UNL1        0.2285
      5 O          63.3176   94.7225    1.3875 O.2     1  UNL1       -0.2746
      6 N          61.4613   93.9970   -0.2792 N.am    1  UNL1       -0.2792
      7 C          62.1316   94.7819   -1.3675 C.3     1  UNL1        0.0951
      8 C          61.5386   94.8116   -2.7451 C.3     1  UNL1        0.0410
      9 C          60.2753   94.0564   -3.0342 C.3     1  UNL1        0.0724
     10 C          59.6049   93.2715   -1.9458 C.3     1  UNL1        0.0410
     11 C          60.1979   93.2418   -0.5683 C.3     1  UNL1        0.0951
     12 N          59.6824   94.0861   -4.4117 N.pl3   1  UNL1       -0.3339
     13 H          60.2470   93.8937   -5.1949 H       1  UNL1        0.1468
     14 C          58.2291   94.4089   -4.5959 C.ar    1  UNL1        0.0447
     15 C          57.6874   95.7252   -4.1228 C.ar    1  UNL1        0.0166
     16 C          56.2342   96.0480   -4.3070 C.ar    1  UNL1        0.0309
     17 C          55.3227   95.0545   -4.9643 C.ar    1  UNL1        0.1402
     18 F          53.8695   95.3773   -5.1484 F       1  UNL1       -0.2042
     19 C          55.8644   93.7381   -5.4373 C.ar    1  UNL1        0.0309
     20 C          57.3176   93.4153   -5.2531 C.ar    1  UNL1        0.0166
     21 C          59.3727   90.8277    5.4517 C.ar    1  UNL1       -0.0062
     22 C          58.5769   91.7931    4.6241 C.ar    1  UNL1       -0.0032
     23 C          59.2473   92.5780    3.5357 C.ar    1  UNL1       -0.0041
     24 C          60.7134   92.3975    3.2750 C.ar    1  UNL1       -0.0146
     25 C          61.5091   91.4322    4.1026 C.ar    1  UNL1       -0.0041
     26 C          60.8387   90.6473    5.1910 C.ar    1  UNL1       -0.0032
     27 C          58.7023   90.0428    6.5401 C.3     1  UNL1        0.0992
     28 C          61.7050   89.1380   10.6832 C.3     1  UNL1        0.0186
     29 C          61.0038   88.6414    9.4537 C.3     1  UNL1        0.0702
     30 C          60.2037   89.5904    8.6116 C.3     1  UNL1        0.0882
     31 N          59.5024   89.0937    7.3822 N.3     1  UNL1       -0.2666
     32 C          59.6014   87.6480    6.9947 C.3     1  UNL1        0.0882
     33 C          60.4015   86.6990    7.8368 C.3     1  UNL1        0.0702
     34 C          60.5004   85.2532    7.4493 C.3     1  UNL1        0.0186
     35 N          61.1027   87.1957    9.0663 N.3     1  UNL1       -0.2974
     36 H          62.0943   86.9912    8.9425 H       1  UNL1        0.1232
@<TRIPOS>BOND
     1    29    28    1
     2    29    30    1
     3    30    31    1
     4    31    27    1
     5    27    21    1
     6    21    22   ar
     7    22    23   ar
     8    23    24   ar
     9    24     1    1
    10     1     2    1
    11     1     3    1
    12     1     4    1
    13     4     5    2
    14     4     6   am
    15     6     7    1
    16     7     8    1
    17     8     9    1
    18     9    12    1
    19    12    14    1
    20    14    15   ar
    21    15    16   ar
    22    16    17   ar
    23    17    18    1
    24    17    19   ar
    25    19    20   ar
    26     9    10    1
    27    10    11    1
    28    24    25   ar
    29    25    26   ar
    30    31    32    1
    31    32    33    1
    32    33    34    1
    33    33    35    1
    34    35    29    1
    35    26    21   ar
    36    11     6    1
    37    20    14   ar
    38    12    13    1
    39    35    36    1
@<TRIPOS>MOLECULE
*****
 36 39 0 0 0
SMALL
GASTEIGER

@<TRIPOS>ATOM
      1 C          62.5104   87.2745   11.5024 C.3     1  UNL1        0.0878
      2 C          62.4775   88.4334   10.5507 C.3     1  UNL1        0.0135
      3 C          62.5433   86.1155   12.4541 C.3     1  UNL1        0.0135
      4 C          61.8097   86.4209   10.4872 C.2     1  UNL1        0.2285
      5 O          62.0024   84.9333   10.4968 O.2     1  UNL1       -0.2746
      6 N          60.9165   87.0549    9.4625 N.am    1  UNL1       -0.2792
      7 C          60.2158   86.2014    8.4473 C.3     1  UNL1        0.0951
      8 C          59.3226   86.8355    7.4225 C.3     1  UNL1        0.0410
      9 C          59.1300   88.3230    7.4130 C.3     1  UNL1        0.0724
     10 C          59.8306   89.1766    8.4282 C.3     1  UNL1        0.0410
     11 C          60.7239   88.5426    9.4529 C.3     1  UNL1        0.0951
     12 N          58.2368   88.9570    6.3883 N.pl3   1  UNL1       -0.3339
     13 H          57.3373   88.5914    6.2256 H       1  UNL1        0.1468
     14 C          58.7140   90.1482    5.6114 C.ar    1  UNL1        0.0447
     15 C          60.1762   90.3200    5.3249 C.ar    1  UNL1        0.0166
     16 C          60.6535   91.5111    4.5480 C.ar    1  UNL1        0.0309
     17 C          59.6684   92.5304    4.0577 C.ar    1  UNL1        0.1402
     18 F          60.1456   93.7215    3.2808 F       1  UNL1       -0.2042
     19 C          58.2060   92.3586    4.3441 C.ar    1  UNL1        0.0309
     20 C          57.7288   91.1675    5.1210 C.ar    1  UNL1        0.0166
     21 C          64.6123   89.8350   14.5480 C.ar    1  UNL1       -0.0062
     22 C          63.9075   90.4746   13.3885 C.ar    1  UNL1       -0.0032
     23 C          63.2068   89.6211   12.3733 C.ar    1  UNL1       -0.0041
     24 C          63.2110   88.1280   12.5176 C.ar    1  UNL1       -0.0146
     25 C          63.9158   87.4885   13.6770 C.ar    1  UNL1       -0.0041
     26 C          64.6165   88.3420   14.6922 C.ar    1  UNL1       -0.0032
     27 C          65.3130   90.6885   15.5631 C.3     1  UNL1        0.0992
     28 C          69.1235   94.1265   16.3758 C.3     1  UNL1        0.0186
     29 C          67.9992   93.6097   15.5279 C.3     1  UNL1        0.0702
     30 C          67.2182   92.4076   15.9694 C.3     1  UNL1        0.0882
     31 N          66.0940   91.8907   15.1216 N.3     1  UNL1       -0.2666
     32 C          65.7506   92.5760   13.8322 C.3     1  UNL1        0.0882
     33 C          66.5316   93.7781   13.3907 C.3     1  UNL1        0.0702
     34 C          66.1883   94.4634   12.1013 C.3     1  UNL1        0.0186
     35 N          67.6559   94.2949   14.2386 N.3     1  UNL1       -0.2974
     36 H          67.4293   95.2621   14.4703 H       1  UNL1        0.1232
@<TRIPOS>BOND
     1    29    28    1
     2    29    30    1
     3    30    31    1
     4    31    27    1
     5    27    21    1
     6    21    22   ar
     7    22    23   ar
     8    23    24   ar
     9    24     1    1
    10     1     2    1
    11     1     3    1
    12     1     4    1
    13     4     5    2
    14     4     6   am
    15     6     7    1
    16     7     8    1
    17     8     9    1
    18     9    12    1
    19    12    14    1
    20    14    15   ar
    21    15    16   ar
    22    16    17   ar
    23    17    18    1
    24    17    19   ar
    25    19    20   ar
    26     9    10    1
    27    10    11    1
    28    24    25   ar
    29    25    26   ar
    30    31    32    1
    31    32    33    1
    32    33    34    1
    33    33    35    1
    34    35    29    1
    35    26    21   ar
    36    11     6    1
    37    20    14   ar
    38    12    13    1
    39    35    36    1
@<TRIPOS>MOLECULE
*****
 36 39 0 0 0
SMALL
GASTEIGER

@<TRIPOS>ATOM
      1 C          62.4998   87.2748   11.5069 C.3     1  UNL1        0.0878
      2 C          62.4310   88.4428   10.5682 C.3     1  UNL1        0.0135
      3 C          62.5687   86.1068   12.4455 C.3     1  UNL1        0.0135
      4 C          61.8031   86.4180   10.4918 C.2     1  UNL1        0.2285
      5 O          62.0011   84.9311   10.5026 O.2     1  UNL1       -0.2746
      6 N          60.9083   87.0480    9.4659 N.am    1  UNL1       -0.2792
      7 C          60.2115   86.1912    8.4509 C.3     1  UNL1        0.0951
      8 C          59.3167   86.8212    7.4250 C.3     1  UNL1        0.0410
      9 C          59.1187   88.3080    7.4142 C.3     1  UNL1        0.0724
     10 C          59.8154   89.1649    8.4293 C.3     1  UNL1        0.0410
     11 C          60.7102   88.5349    9.4551 C.3     1  UNL1        0.0951
     12 N          58.2239   88.9380    6.3883 N.pl3   1  UNL1       -0.3339
     13 H          57.3296   88.5631    6.2184 H       1  UNL1        0.1468
     14 C          58.6916   90.1393    5.6214 C.ar    1  UNL1        0.0447
     15 C          60.1541   90.3333    5.3503 C.ar    1  UNL1        0.0166
     16 C          60.6218   91.5345    4.5834 C.ar    1  UNL1        0.0309
     17 C          59.6271   92.5418    4.0876 C.ar    1  UNL1        0.1402
     18 F          60.0949   93.7431    3.3206 F       1  UNL1       -0.2042
     19 C          58.1646   92.3479    4.3587 C.ar    1  UNL1        0.0309
     20 C          57.6968   91.1466    5.1256 C.ar    1  UNL1        0.0166
     21 C          64.5901   89.8452   14.5521 C.ar    1  UNL1       -0.0062
     22 C          64.5938   88.3526   14.7012 C.ar    1  UNL1       -0.0032
     23 C          63.8971   87.4958   13.6861 C.ar    1  UNL1       -0.0041
     24 C          63.1966   88.1316   12.5220 C.ar    1  UNL1       -0.0146
     25 C          63.1929   89.6242   12.3729 C.ar    1  UNL1       -0.0041
     26 C          63.8897   90.4810   13.3880 C.ar    1  UNL1       -0.0032
     27 C          65.2869   90.7021   15.5672 C.3     1  UNL1        0.0992
     28 C          66.2228   94.4418   12.0832 C.3     1  UNL1        0.0186
     29 C          66.5485   93.7650   13.3816 C.3     1  UNL1        0.0702
     30 C          65.7549   92.5720   13.8252 C.3     1  UNL1        0.0882
     31 N          66.0805   91.8952   15.1236 N.3     1  UNL1       -0.2666
     32 C          67.1998   92.4114   15.9785 C.3     1  UNL1        0.0882
     33 C          67.9933   93.6045   15.5349 C.3     1  UNL1        0.0702
     34 C          69.1126   94.1208   16.3897 C.3     1  UNL1        0.0186
     35 N          67.6677   94.2813   14.2364 N.3     1  UNL1       -0.2974
     36 H          68.5130   94.2475   13.6667 H       1  UNL1        0.1232
@<TRIPOS>BOND
     1    29    28    1
     2    29    30    1
     3    30    31    1
     4    31    27    1
     5    27    21    1
     6    21    22   ar
     7    22    23   ar
     8    23    24   ar
     9    24     1    1
    10     1     2    1
    11     1     3    1
    12     1     4    1
    13     4     5    2
    14     4     6   am
    15     6     7    1
    16     7     8    1
    17     8     9    1
    18     9    12    1
    19    12    14    1
    20    14    15   ar
    21    15    16   ar
    22    16    17   ar
    23    17    18    1
    24    17    19   ar
    25    19    20   ar
    26     9    10    1
    27    10    11    1
    28    24    25   ar
    29    25    26   ar
    30    31    32    1
    31    32    33    1
    32    33    34    1
    33    33    35    1
    34    35    29    1
    35    26    21   ar
    36    11     6    1
    37    20    14   ar
    38    12    13    1
    39    35    36    1
@<TRIPOS>MOLECULE
*****
 36 39 0 0 0
SMALL
GASTEIGER

@<TRIPOS>ATOM
      1 C          59.7071   88.1385    7.7382 C.3     1  UNL1        0.0878
      2 C          60.0835   89.2691    8.6493 C.3     1  UNL1        0.0135
      3 C          59.3308   87.0079    6.8272 C.3     1  UNL1        0.0135
      4 C          58.7525   89.0403    7.0134 C.2     1  UNL1        0.2285
      5 O          57.2792   88.9406    7.2777 O.2     1  UNL1       -0.2746
      6 N          59.2709   90.0418    6.0244 N.am    1  UNL1       -0.2792
      7 C          58.3163   90.9436    5.2996 C.3     1  UNL1        0.0951
      8 C          58.8348   91.9451    4.3105 C.3     1  UNL1        0.0410
      9 C          60.3080   92.0448    4.0463 C.3     1  UNL1        0.0724
     10 C          61.2626   91.1429    4.7711 C.3     1  UNL1        0.0410
     11 C          60.7442   90.1415    5.7601 C.3     1  UNL1        0.0951
     12 N          60.8264   93.0462    3.0573 N.pl3   1  UNL1       -0.3339
     13 H          61.4298   93.7650    3.3549 H       1  UNL1        0.1468
     14 C          60.4256   92.9526    1.6149 C.ar    1  UNL1        0.0447
     15 C          59.0458   93.3615    1.1918 C.ar    1  UNL1        0.0166
     16 C          58.6450   93.2679   -0.2506 C.ar    1  UNL1        0.0309
     17 C          59.6239   92.7654   -1.2699 C.ar    1  UNL1        0.1402
     18 F          59.2231   92.6718   -2.7124 F       1  UNL1       -0.2042
     19 C          61.0038   92.3564   -0.8469 C.ar    1  UNL1        0.0309
     20 C          61.4046   92.4501    0.5955 C.ar    1  UNL1        0.0166
     21 C          62.5712   85.4331    9.9126 C.ar    1  UNL1       -0.0062
     22 C          61.9084   86.5645   10.6411 C.ar    1  UNL1       -0.0032
     23 C          60.9537   87.4663    9.9164 C.ar    1  UNL1       -0.0041
     24 C          60.6618   87.2367    8.4630 C.ar    1  UNL1       -0.0146
     25 C          61.3246   86.1053    7.7345 C.ar    1  UNL1       -0.0041
     26 C          62.2792   85.2035    8.4593 C.ar    1  UNL1       -0.0032
     27 C          63.5259   84.5313   10.6374 C.3     1  UNL1        0.0992
     28 C          63.7489   85.4391   15.7488 C.3     1  UNL1        0.0186
     29 C          63.3453   84.5607   14.6018 C.3     1  UNL1        0.0702
     30 C          63.6374   84.9852   13.1931 C.3     1  UNL1        0.0882
     31 N          63.2337   84.1068   12.0462 N.3     1  UNL1       -0.2666
     32 C          62.5380   82.8039   12.3079 C.3     1  UNL1        0.0882
     33 C          62.2459   82.3795   13.7166 C.3     1  UNL1        0.0702
     34 C          61.5502   81.0766   13.9785 C.3     1  UNL1        0.0186
     35 N          62.6496   83.2579   14.8636 N.3     1  UNL1       -0.2974
     36 H          63.2718   82.7051   15.4531 H       1  UNL1        0.1232
@<TRIPOS>BOND
     1    29    28    1
     2    29    30    1
     3    30    31    1
     4    31    27    1
     5    27    21    1
     6    21    22   ar
     7    22    23   ar
     8    23    24   ar
     9    24     1    1
    10     1     2    1
    11     1     3    1
    12     1     4    1
    13     4     5    2
    14     4     6   am
    15     6     7    1
    16     7     8    1
    17     8     9    1
    18     9    12    1
    19    12    14    1
    20    14    15   ar
    21    15    16   ar
    22    16    17   ar
    23    17    18    1
    24    17    19   ar
    25    19    20   ar
    26     9    10    1
    27    10    11    1
    28    24    25   ar
    29    25    26   ar
    30    31    32    1
    31    32    33    1
    32    33    34    1
    33    33    35    1
    34    35    29    1
    35    26    21   ar
    36    11     6    1
    37    20    14   ar
    38    12    13    1
    39    35    36    1
@<TRIPOS>MOLECULE
*****
 36 39 0 0 0
SMALL
GASTEIGER

@<TRIPOS>ATOM
      1 C          59.7071   88.1164    7.7360 C.3     1  UNL1        0.0878
      2 C          59.3285   86.9816    6.8310 C.3     1  UNL1        0.0135
      3 C          60.0857   89.2511    8.6410 C.3     1  UNL1        0.0135
      4 C          58.7492   89.0144    7.0107 C.2     1  UNL1        0.2285
      5 O          57.2760   88.9064    7.2716 O.2     1  UNL1       -0.2746
      6 N          59.2645   90.0204    6.0247 N.am    1  UNL1       -0.2792
      7 C          58.3067   90.9184    5.2994 C.3     1  UNL1        0.0951
      8 C          58.8220   91.9245    4.3133 C.3     1  UNL1        0.0410
      9 C          60.2952   92.0325    4.0525 C.3     1  UNL1        0.0724
     10 C          61.2531   91.1344    4.7778 C.3     1  UNL1        0.0410
     11 C          60.7378   90.1284    5.7639 C.3     1  UNL1        0.0951
     12 N          60.8105   93.0385    3.0665 N.pl3   1  UNL1       -0.3339
     13 H          61.4099   93.7595    3.3666 H       1  UNL1        0.1468
     14 C          60.4126   92.9459    1.6232 C.ar    1  UNL1        0.0447
     15 C          61.3878   92.4277    0.6081 C.ar    1  UNL1        0.0166
     16 C          60.9899   92.3351   -0.8352 C.ar    1  UNL1        0.0309
     17 C          59.6168   92.7608   -1.2634 C.ar    1  UNL1        0.1402
     18 F          59.2189   92.6682   -2.7067 F       1  UNL1       -0.2042
     19 C          58.6415   93.2790   -0.2483 C.ar    1  UNL1        0.0309
     20 C          59.0395   93.3716    1.1950 C.ar    1  UNL1        0.0166
     21 C          62.5807   85.4223    9.9119 C.ar    1  UNL1       -0.0062
     22 C          61.9280   86.5630   10.6351 C.ar    1  UNL1       -0.0032
     23 C          60.9702   87.4611    9.9098 C.ar    1  UNL1       -0.0041
     24 C          60.6649   87.2184    8.4613 C.ar    1  UNL1       -0.0146
     25 C          61.3175   86.0777    7.7382 C.ar    1  UNL1       -0.0041
     26 C          62.2754   85.1797    8.4635 C.ar    1  UNL1       -0.0032
     27 C          63.5385   84.5243   10.6372 C.3     1  UNL1        0.0992
     28 C          61.5373   81.0570   13.9498 C.3     1  UNL1        0.0186
     29 C          62.2420   82.3571   13.6987 C.3     1  UNL1        0.0702
     30 C          62.5379   82.7906   12.2935 C.3     1  UNL1        0.0882
     31 N          63.2426   84.0908   12.0424 N.3     1  UNL1       -0.2666
     32 C          63.6513   84.9575   13.1964 C.3     1  UNL1        0.0882
     33 C          63.3553   84.5240   14.6016 C.3     1  UNL1        0.0702
     34 C          63.7640   85.3906   15.7557 C.3     1  UNL1        0.0186
     35 N          62.6507   83.2238   14.8527 N.3     1  UNL1       -0.2974
     36 H          61.8002   83.4450   15.3704 H       1  UNL1        0.1232
@<TRIPOS>BOND
     1    29    28    1
     2    29    30    1
     3    30    31    1
     4    31    27    1
     5    27    21    1
     6    21    22   ar
     7    22    23   ar
     8    23    24   ar
     9    24     1    1
    10     1     2    1
    11     1     3    1
    12     1     4    1
    13     4     5    2
    14     4     6   am
    15     6     7    1
    16     7     8    1
    17     8     9    1
    18     9    12    1
    19    12    14    1
    20    14    15   ar
    21    15    16   ar
    22    16    17   ar
    23    17    18    1
    24    17    19   ar
    25    19    20   ar
    26     9    10    1
    27    10    11    1
    28    24    25   ar
    29    25    26   ar
    30    31    32    1
    31    32    33    1
    32    33    34    1
    33    33    35    1
    34    35    29    1
    35    26    21   ar
    36    11     6    1
    37    20    14   ar
    38    12    13    1
    39    35    36    1
