@<TRIPOS>MOLECULE
*****
 33 36 0 0 0
SMALL
GASTEIGER

@<TRIPOS>ATOM
      1 N          63.3800   84.7400   12.4445 N.pl3   1  UNL1       -0.3041
      2 C          62.7887   85.8095   11.5748 C.3     1  UNL1        0.1123
      3 C          62.9413   87.2531   11.9527 C.3     1  UNL1        0.1148
      4 N          63.6852   87.6271   13.2004 N.am    1  UNL1       -0.2755
      5 C          63.8379   89.0707   13.5783 C.2     1  UNL1        0.2335
      6 O          64.5818   89.4447   14.8260 O.2     1  UNL1       -0.2742
      7 C          64.2765   86.5576   14.0701 C.3     1  UNL1        0.1148
      8 C          64.1239   85.1140   13.6921 C.3     1  UNL1        0.1123
      9 C          62.9221   80.4093   11.3106 C.ar    1  UNL1        0.1058
     10 C          63.4590   81.3929   10.3135 C.ar    1  UNL1        0.0196
     11 C          63.6116   82.8365   10.6915 C.ar    1  UNL1        0.0158
     12 C          63.2273   83.2964   12.0665 C.ar    1  UNL1        0.0480
     13 C          62.6904   82.3128   13.0636 C.ar    1  UNL1        0.0158
     14 C          62.5378   80.8693   12.6856 C.ar    1  UNL1        0.0196
     15 C          62.6168   77.5222   10.5547 C.3     1  UNL1        0.1816
     16 S          62.7694   78.9658   10.9327 S.O2    1  UNL1        0.0105
     17 O          62.5377   78.6134   12.3721 O.2     1  UNL1       -0.1686
     18 O          63.0011   79.3182    9.4932 O.2     1  UNL1       -0.1686
     19 C          63.2466   90.1402   12.7086 C.3     1  UNL1        0.1226
     20 C          64.1055   91.2677   12.2178 C.ar    1  UNL1       -0.0097
     21 C          64.0768   91.6568   10.7693 C.ar    1  UNL1       -0.0028
     22 C          64.9357   92.7843   10.2784 C.ar    1  UNL1        0.0100
     23 C          65.8233   93.5228   11.2360 C.ar    1  UNL1        0.0684
     24 C          65.8520   93.1337   12.6844 C.ar    1  UNL1        0.0100
     25 C          64.9931   92.0062   13.1752 C.ar    1  UNL1       -0.0028
     26 C          66.6822   94.6503   10.7451 C.1     1  UNL1        0.1004
     27 N          67.5411   95.7779   10.2543 N.1     1  UNL1       -0.1908
     28 C          61.7963   90.0823   12.3298 C.ar    1  UNL1        0.0094
     29 C          61.3583   90.5342   10.9682 C.ar    1  UNL1       -0.0004
     30 C          59.9081   90.4763   10.5893 C.ar    1  UNL1        0.0204
     31 C          58.8959   89.9664   11.5720 C.ar    1  UNL1        0.0989
     32 N          59.3340   89.5145   12.9336 N.ar    1  UNL1       -0.2426
     33 C          60.7843   89.5724   13.3124 C.ar    1  UNL1        0.0954
@<TRIPOS>BOND
     1    15    16    1
     2    16    17    2
     3    16    18    2
     4    16     9    1
     5     9    10   ar
     6    10    11   ar
     7    11    12   ar
     8    12     1    1
     9     1     2    1
    10     2     3    1
    11     3     4    1
    12     4     5   am
    13     5     6    2
    14     5    19    1
    15    19    20    1
    16    20    21   ar
    17    21    22   ar
    18    22    23   ar
    19    23    26    1
    20    26    27    3
    21    23    24   ar
    22    24    25   ar
    23    19    28    1
    24    28    29   ar
    25    29    30   ar
    26    30    31   ar
    27    31    32   ar
    28    32    33   ar
    29     4     7    1
    30     7     8    1
    31    12    13   ar
    32    13    14   ar
    33    14     9   ar
    34     8     1    1
    35    25    20   ar
    36    33    28   ar
@<TRIPOS>MOLECULE
*****
 33 36 0 0 0
SMALL
GASTEIGER

@<TRIPOS>ATOM
      1 N          63.2994   84.6192   13.4826 N.pl3   1  UNL1       -0.3041
      2 C          63.5392   85.8200   12.6163 C.3     1  UNL1        0.1123
      3 C          63.6755   87.1782   13.2381 C.3     1  UNL1        0.1148
      4 N          63.5719   87.3357   14.7262 N.am    1  UNL1       -0.2755
      5 C          63.7082   88.6939   15.3480 C.2     1  UNL1        0.2335
      6 O          63.6047   88.8513   16.8361 O.2     1  UNL1       -0.2742
      7 C          63.3321   86.1349   15.5925 C.3     1  UNL1        0.1148
      8 C          63.1959   84.7766   14.9707 C.3     1  UNL1        0.1123
      9 C          62.8906   80.5445   11.6172 C.ar    1  UNL1        0.1058
     10 C          63.3928   81.6970   10.7990 C.ar    1  UNL1        0.0196
     11 C          63.5291   83.0552   11.4208 C.ar    1  UNL1        0.0158
     12 C          63.1631   83.2610   12.8608 C.ar    1  UNL1        0.0480
     13 C          62.6609   82.1085   13.6790 C.ar    1  UNL1        0.0158
     14 C          62.5246   80.7503   13.0572 C.ar    1  UNL1        0.0196
     15 C          62.6180   77.8280   10.3736 C.3     1  UNL1        0.1816
     16 S          62.7543   79.1863   10.9954 S.O2    1  UNL1        0.0105
     17 O          62.9582   79.7879    9.6366 O.2     1  UNL1       -0.1686
     18 O          62.5504   78.5847   12.3543 O.2     1  UNL1       -0.1686
     19 C          63.9480   89.8947   14.4817 C.3     1  UNL1        0.1226
     20 C          65.0371   90.8655   14.8302 C.ar    1  UNL1       -0.0097
     21 C          64.8562   91.8156   15.9769 C.ar    1  UNL1       -0.0028
     22 C          65.9453   92.7864   16.3254 C.ar    1  UNL1        0.0100
     23 C          67.2152   92.8071   15.5273 C.ar    1  UNL1        0.0684
     24 C          67.3960   91.8571   14.3807 C.ar    1  UNL1        0.0100
     25 C          66.3070   90.8863   14.0322 C.ar    1  UNL1       -0.0028
     26 C          68.3043   93.7780   15.8758 C.1     1  UNL1        0.1004
     27 N          69.3933   94.7488   16.2243 N.1     1  UNL1       -0.1908
     28 C          63.0988   90.1248   13.2668 C.ar    1  UNL1        0.0094
     29 C          63.6936   90.7605   12.0454 C.ar    1  UNL1       -0.0004
     30 C          62.8444   90.9906   10.8305 C.ar    1  UNL1        0.0204
     31 C          61.4003   90.5849   10.8370 C.ar    1  UNL1        0.0989
     32 N          60.8055   89.9491   12.0585 N.ar    1  UNL1       -0.2426
     33 C          61.6547   89.7190   13.2734 C.ar    1  UNL1        0.0954
@<TRIPOS>BOND
     1    15    16    1
     2    16    17    2
     3    16    18    2
     4    16     9    1
     5     9    10   ar
     6    10    11   ar
     7    11    12   ar
     8    12     1    1
     9     1     2    1
    10     2     3    1
    11     3     4    1
    12     4     5   am
    13     5     6    2
    14     5    19    1
    15    19    20    1
    16    20    21   ar
    17    21    22   ar
    18    22    23   ar
    19    23    26    1
    20    26    27    3
    21    23    24   ar
    22    24    25   ar
    23    19    28    1
    24    28    29   ar
    25    29    30   ar
    26    30    31   ar
    27    31    32   ar
    28    32    33   ar
    29     4     7    1
    30     7     8    1
    31    12    13   ar
    32    13    14   ar
    33    14     9   ar
    34     8     1    1
    35    25    20   ar
    36    33    28   ar
@<TRIPOS>MOLECULE
*****
 33 36 0 0 0
SMALL
GASTEIGER

@<TRIPOS>ATOM
      1 N          63.5334   85.5482   13.3848 N.pl3   1  UNL1       -0.3041
      2 C          63.0636   86.3917   12.2369 C.3     1  UNL1        0.1123
      3 C          63.2760   87.8764   12.2609 C.3     1  UNL1        0.1148
      4 N          63.9581   88.5176   13.4329 N.am    1  UNL1       -0.2755
      5 C          64.1704   90.0023   13.4569 C.2     1  UNL1        0.2335
      6 O          64.8525   90.6435   14.6289 O.2     1  UNL1       -0.2742
      7 C          64.4278   87.6741   14.5808 C.3     1  UNL1        0.1148
      8 C          64.2155   86.1894   14.5568 C.3     1  UNL1        0.1123
      9 C          62.8965   81.0941   13.3127 C.ar    1  UNL1        0.1058
     10 C          62.1620   81.9407   14.3095 C.ar    1  UNL1        0.0196
     11 C          62.3743   83.4254   14.3336 C.ar    1  UNL1        0.0158
     12 C          63.3211   84.0635   13.3608 C.ar    1  UNL1        0.0480
     13 C          64.0556   83.2169   12.3640 C.ar    1  UNL1        0.0158
     14 C          63.8433   81.7322   12.3399 C.ar    1  UNL1        0.0196
     15 C          62.4718   78.1247   13.2647 C.3     1  UNL1        0.1816
     16 S          62.6841   79.6094   13.2887 S.O2    1  UNL1        0.0105
     17 O          62.7647   79.5736   14.7861 O.2     1  UNL1       -0.1686
     18 O          62.6036   79.6452   11.7913 O.2     1  UNL1       -0.1686
     19 C          63.7006   90.8458   12.3090 C.3     1  UNL1        0.1226
     20 C          64.5013   92.0387   11.8778 C.ar    1  UNL1       -0.0097
     21 C          64.4020   92.5385   10.4670 C.ar    1  UNL1       -0.0028
     22 C          65.2027   93.7314   10.0358 C.ar    1  UNL1        0.0100
     23 C          66.1027   94.4245   11.0155 C.ar    1  UNL1        0.0684
     24 C          66.2019   93.9247   12.4262 C.ar    1  UNL1        0.0100
     25 C          65.4012   92.7318   12.8574 C.ar    1  UNL1       -0.0028
     26 C          66.9034   95.6174   10.5843 C.1     1  UNL1        0.1004
     27 N          67.7040   96.8103   10.1531 N.1     1  UNL1       -0.1908
     28 C          62.4301   90.4964   11.5922 C.ar    1  UNL1        0.0094
     29 C          62.4676   90.1158   10.1418 C.ar    1  UNL1       -0.0004
     30 C          61.1972   89.7664    9.4249 C.ar    1  UNL1        0.0204
     31 C          59.8891   89.7977   10.1585 C.ar    1  UNL1        0.0989
     32 N          59.8516   90.1783   11.6089 N.ar    1  UNL1       -0.2426
     33 C          61.1221   90.5277   12.3258 C.ar    1  UNL1        0.0954
@<TRIPOS>BOND
     1    15    16    1
     2    16    17    2
     3    16    18    2
     4    16     9    1
     5     9    10   ar
     6    10    11   ar
     7    11    12   ar
     8    12     1    1
     9     1     2    1
    10     2     3    1
    11     3     4    1
    12     4     5   am
    13     5     6    2
    14     5    19    1
    15    19    20    1
    16    20    21   ar
    17    21    22   ar
    18    22    23   ar
    19    23    26    1
    20    26    27    3
    21    23    24   ar
    22    24    25   ar
    23    19    28    1
    24    28    29   ar
    25    29    30   ar
    26    30    31   ar
    27    31    32   ar
    28    32    33   ar
    29     4     7    1
    30     7     8    1
    31    12    13   ar
    32    13    14   ar
    33    14     9   ar
    34     8     1    1
    35    25    20   ar
    36    33    28   ar
@<TRIPOS>MOLECULE
*****
 33 36 0 0 0
SMALL
GASTEIGER

@<TRIPOS>ATOM
      1 N          63.4144   84.6783   12.8761 N.pl3   1  UNL1       -0.3041
      2 C          63.3048   85.8153   11.9039 C.3     1  UNL1        0.1123
      3 C          63.4719   87.2279   12.3800 C.3     1  UNL1        0.1148
      4 N          63.7487   87.5035   13.8282 N.am    1  UNL1       -0.2755
      5 C          63.9159   88.9161   14.3042 C.2     1  UNL1        0.2335
      6 O          64.1927   89.1918   15.7524 O.2     1  UNL1       -0.2742
      7 C          63.8584   86.3665   14.8003 C.3     1  UNL1        0.1148
      8 C          63.6913   84.9539   14.3243 C.3     1  UNL1        0.1123
      9 C          62.9130   80.4405   11.4480 C.ar    1  UNL1        0.1058
     10 C          62.5834   80.7977   12.8670 C.ar    1  UNL1        0.0196
     11 C          62.7506   82.2103   13.3431 C.ar    1  UNL1        0.0158
     12 C          63.2473   83.2657   12.4001 C.ar    1  UNL1        0.0480
     13 C          63.5769   82.9085   10.9810 C.ar    1  UNL1        0.0158
     14 C          63.4098   81.4959   10.5050 C.ar    1  UNL1        0.0196
     15 C          62.5787   77.6153   10.4959 C.3     1  UNL1        0.1816
     16 S          62.7459   79.0279   10.9719 S.O2    1  UNL1        0.0105
     17 O          62.5542   78.5732   12.3885 O.2     1  UNL1       -0.1686
     18 O          62.9376   79.4826    9.5554 O.2     1  UNL1       -0.1686
     19 C          63.8062   90.0531   13.3320 C.3     1  UNL1        0.1226
     20 C          62.8555   89.9619   12.1753 C.ar    1  UNL1       -0.0097
     21 C          61.3907   89.7541   12.4230 C.ar    1  UNL1       -0.0028
     22 C          60.4401   89.6629   11.2663 C.ar    1  UNL1        0.0100
     23 C          60.9542   89.7794    9.8620 C.ar    1  UNL1        0.0684
     24 C          62.4189   89.9871    9.6144 C.ar    1  UNL1        0.0100
     25 C          63.3696   90.0784   10.7710 C.ar    1  UNL1       -0.0028
     26 C          60.0036   89.6881    8.7053 C.1     1  UNL1        0.1004
     27 N          59.0529   89.5969    7.5486 N.1     1  UNL1       -0.1908
     28 C          64.6472   91.2815   13.5165 C.ar    1  UNL1        0.0094
     29 C          65.0596   92.0940   12.3250 C.ar    1  UNL1       -0.0004
     30 C          65.9005   93.3222   12.5094 C.ar    1  UNL1        0.0204
     31 C          66.3292   93.7381   13.8854 C.ar    1  UNL1        0.0989
     32 N          65.9169   92.9256   15.0770 N.ar    1  UNL1       -0.2426
     33 C          65.0759   91.6972   14.8925 C.ar    1  UNL1        0.0954
@<TRIPOS>BOND
     1    15    16    1
     2    16    17    2
     3    16    18    2
     4    16     9    1
     5     9    10   ar
     6    10    11   ar
     7    11    12   ar
     8    12     1    1
     9     1     2    1
    10     2     3    1
    11     3     4    1
    12     4     5   am
    13     5     6    2
    14     5    19    1
    15    19    20    1
    16    20    21   ar
    17    21    22   ar
    18    22    23   ar
    19    23    26    1
    20    26    27    3
    21    23    24   ar
    22    24    25   ar
    23    19    28    1
    24    28    29   ar
    25    29    30   ar
    26    30    31   ar
    27    31    32   ar
    28    32    33   ar
    29     4     7    1
    30     7     8    1
    31    12    13   ar
    32    13    14   ar
    33    14     9   ar
    34     8     1    1
    35    25    20   ar
    36    33    28   ar
@<TRIPOS>MOLECULE
*****
 33 36 0 0 0
SMALL
GASTEIGER

@<TRIPOS>ATOM
      1 N          63.5769   85.6190   13.6240 N.pl3   1  UNL1       -0.3041
      2 C          63.3367   86.4884   12.4256 C.3     1  UNL1        0.1123
      3 C          63.5645   87.9684   12.5148 C.3     1  UNL1        0.1148
      4 N          64.0326   88.5789   13.8024 N.am    1  UNL1       -0.2755
      5 C          64.2604   90.0588   13.8916 C.2     1  UNL1        0.2335
      6 O          64.7285   90.6693   15.1793 O.2     1  UNL1       -0.2742
      7 C          64.2729   87.7095   15.0009 C.3     1  UNL1        0.1148
      8 C          64.0450   86.2295   14.9117 C.3     1  UNL1        0.1123
      9 C          62.8935   81.1793   13.3564 C.ar    1  UNL1        0.1058
     10 C          63.7552   81.8681   12.3401 C.ar    1  UNL1        0.0196
     11 C          63.9830   83.3480   12.4293 C.ar    1  UNL1        0.0158
     12 C          63.3491   84.1391   13.5348 C.ar    1  UNL1        0.0480
     13 C          62.4874   83.4503   14.5512 C.ar    1  UNL1        0.0158
     14 C          62.2596   81.9704   14.4620 C.ar    1  UNL1        0.0196
     15 C          62.4378   78.2195   13.1780 C.3     1  UNL1        0.1816
     16 S          62.6657   79.6994   13.2672 S.O2    1  UNL1        0.0105
     17 O          62.6325   79.7947   11.7706 O.2     1  UNL1       -0.1686
     18 O          62.6989   79.6041   14.7638 O.2     1  UNL1       -0.1686
     19 C          64.0201   90.9282   12.6932 C.3     1  UNL1        0.1226
     20 C          62.9917   90.5342   11.6748 C.ar    1  UNL1       -0.0097
     21 C          61.5404   90.4920   12.0520 C.ar    1  UNL1       -0.0028
     22 C          60.5120   90.0980   11.0337 C.ar    1  UNL1        0.0100
     23 C          60.9348   89.7461    9.6381 C.ar    1  UNL1        0.0684
     24 C          62.3860   89.7882    9.2610 C.ar    1  UNL1        0.0100
     25 C          63.4144   90.1823   10.2793 C.ar    1  UNL1       -0.0028
     26 C          59.9063   89.3521    8.6198 C.1     1  UNL1        0.1004
     27 N          58.8779   88.9580    7.6014 N.1     1  UNL1       -0.1908
     28 C          64.8083   92.1917   12.5130 C.ar    1  UNL1        0.0094
     29 C          64.9063   92.8277   11.1581 C.ar    1  UNL1       -0.0004
     30 C          65.6944   94.0912   10.9779 C.ar    1  UNL1        0.0204
     31 C          66.3846   94.7187   12.1527 C.ar    1  UNL1        0.0989
     32 N          66.2866   94.0826   13.5076 N.ar    1  UNL1       -0.2426
     33 C          65.4984   92.8191   13.6878 C.ar    1  UNL1        0.0954
@<TRIPOS>BOND
     1    15    16    1
     2    16    17    2
     3    16    18    2
     4    16     9    1
     5     9    10   ar
     6    10    11   ar
     7    11    12   ar
     8    12     1    1
     9     1     2    1
    10     2     3    1
    11     3     4    1
    12     4     5   am
    13     5     6    2
    14     5    19    1
    15    19    20    1
    16    20    21   ar
    17    21    22   ar
    18    22    23   ar
    19    23    26    1
    20    26    27    3
    21    23    24   ar
    22    24    25   ar
    23    19    28    1
    24    28    29   ar
    25    29    30   ar
    26    30    31   ar
    27    31    32   ar
    28    32    33   ar
    29     4     7    1
    30     7     8    1
    31    12    13   ar
    32    13    14   ar
    33    14     9   ar
    34     8     1    1
    35    25    20   ar
    36    33    28   ar
@<TRIPOS>MOLECULE
*****
 33 36 0 0 0
SMALL
GASTEIGER

@<TRIPOS>ATOM
      1 N          62.8819   86.5671   12.2344 N.pl3   1  UNL1       -0.3041
      2 C          63.8220   87.4625   12.9855 C.3     1  UNL1        0.1123
      3 C          63.9847   88.8951   12.5716 C.3     1  UNL1        0.1148
      4 N          63.2073   89.4322   11.4067 N.am    1  UNL1       -0.2755
      5 C          63.3700   90.8648   10.9929 C.2     1  UNL1        0.2335
      6 O          62.5926   91.4019    9.8280 O.2     1  UNL1       -0.2742
      7 C          62.2671   88.5367   10.6556 C.3     1  UNL1        0.1148
      8 C          62.1044   87.1042   11.0695 C.3     1  UNL1        0.1123
      9 C          62.3937   82.2693   13.4758 C.ar    1  UNL1        0.1058
     10 C          62.4109   83.3524   14.5134 C.ar    1  UNL1        0.0196
     11 C          62.5736   84.7850   14.0996 C.ar    1  UNL1        0.0158
     12 C          62.7192   85.1345   12.6482 C.ar    1  UNL1        0.0480
     13 C          62.7020   84.0514   11.6106 C.ar    1  UNL1        0.0158
     14 C          62.5393   82.6188   12.0244 C.ar    1  UNL1        0.0196
     15 C          62.0683   79.4042   14.3035 C.3     1  UNL1        0.1816
     16 S          62.2310   80.8367   13.8896 S.O2    1  UNL1        0.0105
     17 O          60.7411   81.0095   13.9019 O.2     1  UNL1       -0.1686
     18 O          63.7210   80.6640   13.8774 O.2     1  UNL1       -0.1686
     19 C          64.3102   91.7603   11.7440 C.3     1  UNL1        0.1226
     20 C          65.1281   92.7776   11.0051 C.ar    1  UNL1       -0.0097
     21 C          66.3806   92.3594   10.2933 C.ar    1  UNL1       -0.0028
     22 C          67.1986   93.3767    9.5544 C.ar    1  UNL1        0.0100
     23 C          66.7641   94.8122    9.5272 C.ar    1  UNL1        0.0684
     24 C          65.5117   95.2303   10.2390 C.ar    1  UNL1        0.0100
     25 C          64.6937   94.2130   10.9779 C.ar    1  UNL1       -0.0028
     26 C          67.5821   95.8295    8.7883 C.1     1  UNL1        0.1004
     27 N          68.4001   96.8468    8.0494 N.1     1  UNL1       -0.1908
     28 C          64.4324   91.6385   13.2341 C.ar    1  UNL1        0.0094
     29 C          65.7026   92.0487   13.9184 C.ar    1  UNL1       -0.0004
     30 C          65.8248   91.9269   15.4084 C.ar    1  UNL1        0.0204
     31 C          64.6768   91.3949   16.2142 C.ar    1  UNL1        0.0989
     32 N          63.4066   90.9847   15.5299 N.ar    1  UNL1       -0.2426
     33 C          63.2844   91.1065   14.0398 C.ar    1  UNL1        0.0954
@<TRIPOS>BOND
     1    15    16    1
     2    16    17    2
     3    16    18    2
     4    16     9    1
     5     9    10   ar
     6    10    11   ar
     7    11    12   ar
     8    12     1    1
     9     1     2    1
    10     2     3    1
    11     3     4    1
    12     4     5   am
    13     5     6    2
    14     5    19    1
    15    19    20    1
    16    20    21   ar
    17    21    22   ar
    18    22    23   ar
    19    23    26    1
    20    26    27    3
    21    23    24   ar
    22    24    25   ar
    23    19    28    1
    24    28    29   ar
    25    29    30   ar
    26    30    31   ar
    27    31    32   ar
    28    32    33   ar
    29     4     7    1
    30     7     8    1
    31    12    13   ar
    32    13    14   ar
    33    14     9   ar
    34     8     1    1
    35    25    20   ar
    36    33    28   ar
@<TRIPOS>MOLECULE
*****
 33 36 0 0 0
SMALL
GASTEIGER

@<TRIPOS>ATOM
      1 N          64.1158   90.7164   13.2217 N.pl3   1  UNL1       -0.3041
      2 C          64.2579   89.9221   11.9573 C.3     1  UNL1        0.1123
      3 C          63.0704   89.2081   11.3827 C.3     1  UNL1        0.1148
      4 N          61.7409   89.2885   12.0725 N.am    1  UNL1       -0.2755
      5 C          60.5534   88.5745   11.4979 C.2     1  UNL1        0.2335
      6 O          59.2239   88.6549   12.1878 O.2     1  UNL1       -0.2742
      7 C          61.5989   90.0829   13.3369 C.3     1  UNL1        0.1148
      8 C          62.7863   90.7969   13.9115 C.3     1  UNL1        0.1123
      9 C          67.6783   92.8584   14.9454 C.ar    1  UNL1        0.1058
     10 C          67.5813   92.6350   13.4653 C.ar    1  UNL1        0.0196
     11 C          66.3939   91.9210   12.8907 C.ar    1  UNL1        0.0158
     12 C          65.3033   91.4304   13.7962 C.ar    1  UNL1        0.0480
     13 C          65.4003   91.6538   15.2763 C.ar    1  UNL1        0.0158
     14 C          66.5877   92.3678   15.8509 C.ar    1  UNL1        0.0196
     15 C          70.0532   94.2863   16.0945 C.3     1  UNL1        0.1816
     16 S          68.8658   93.5724   15.5199 S.O2    1  UNL1        0.0105
     17 O          69.7632   92.8571   14.5540 O.2     1  UNL1       -0.1686
     18 O          67.9683   94.2876   16.4859 O.2     1  UNL1       -0.1686
     19 C          60.6954   87.7801   10.2336 C.3     1  UNL1        0.1226
     20 C          61.5018   86.5153   10.2290 C.ar    1  UNL1       -0.0097
     21 C          61.6316   85.7042   11.4842 C.ar    1  UNL1       -0.0028
     22 C          62.4379   84.4393   11.4797 C.ar    1  UNL1        0.0100
     23 C          63.1144   83.9856   10.2200 C.ar    1  UNL1        0.0684
     24 C          62.9845   84.7967    8.9650 C.ar    1  UNL1        0.0100
     25 C          62.1782   86.0615    8.9695 C.ar    1  UNL1       -0.0028
     26 C          63.9207   82.7208   10.2155 C.1     1  UNL1        0.1004
     27 N          64.7270   81.4559   10.2110 N.1     1  UNL1       -0.1908
     28 C          60.0311   88.2506    8.9736 C.ar    1  UNL1        0.0094
     29 C          60.3730   89.5948    8.4023 C.ar    1  UNL1       -0.0004
     30 C          59.7087   90.0652    7.1424 C.ar    1  UNL1        0.0204
     31 C          58.7026   89.1915    6.4537 C.ar    1  UNL1        0.0989
     32 N          58.3607   87.8473    7.0249 N.ar    1  UNL1       -0.2426
     33 C          59.0250   87.3769    8.2849 C.ar    1  UNL1        0.0954
@<TRIPOS>BOND
     1    15    16    1
     2    16    17    2
     3    16    18    2
     4    16     9    1
     5     9    10   ar
     6    10    11   ar
     7    11    12   ar
     8    12     1    1
     9     1     2    1
    10     2     3    1
    11     3     4    1
    12     4     5   am
    13     5     6    2
    14     5    19    1
    15    19    20    1
    16    20    21   ar
    17    21    22   ar
    18    22    23   ar
    19    23    26    1
    20    26    27    3
    21    23    24   ar
    22    24    25   ar
    23    19    28    1
    24    28    29   ar
    25    29    30   ar
    26    30    31   ar
    27    31    32   ar
    28    32    33   ar
    29     4     7    1
    30     7     8    1
    31    12    13   ar
    32    13    14   ar
    33    14     9   ar
    34     8     1    1
    35    25    20   ar
    36    33    28   ar
@<TRIPOS>MOLECULE
*****
 33 36 0 0 0
SMALL
GASTEIGER

@<TRIPOS>ATOM
      1 N          61.3936   86.5972    9.1169 N.pl3   1  UNL1       -0.3041
      2 C          60.9873   86.3451   10.5387 C.3     1  UNL1        0.1123
      3 C          61.7401   85.3476   11.3682 C.3     1  UNL1        0.1148
      4 N          62.8993   84.6022   10.7761 N.am    1  UNL1       -0.2755
      5 C          63.6522   83.6047   11.6057 C.2     1  UNL1        0.2335
      6 O          64.8114   82.8593   11.0136 O.2     1  UNL1       -0.2742
      7 C          63.3057   84.8543    9.3544 C.3     1  UNL1        0.1148
      8 C          62.5528   85.8518    8.5248 C.3     1  UNL1        0.1123
      9 C          59.1351   89.5897    6.6282 C.ar    1  UNL1        0.1058
     10 C          59.0305   88.1257    6.3188 C.ar    1  UNL1        0.0196
     11 C          59.7834   87.1282    7.1484 C.ar    1  UNL1        0.0158
     12 C          60.6408   87.5947    8.2874 C.ar    1  UNL1        0.0480
     13 C          60.7453   89.0587    8.5967 C.ar    1  UNL1        0.0158
     14 C          59.9924   90.0562    7.7671 C.ar    1  UNL1        0.0196
     15 C          57.6294   91.5847    4.9690 C.3     1  UNL1        0.1816
     16 S          58.3822   90.5872    5.7986 S.O2    1  UNL1        0.0105
     17 O          57.0852   90.0316    6.3076 O.2     1  UNL1       -0.1686
     18 O          59.6792   91.1428    5.2896 O.2     1  UNL1       -0.1686
     19 C          63.2459   83.3526   13.0274 C.3     1  UNL1        0.1226
     20 C          63.2453   84.4787   14.0182 C.ar    1  UNL1       -0.0097
     21 C          62.3535   84.4174   15.2229 C.ar    1  UNL1       -0.0028
     22 C          62.3530   85.5435   16.2137 C.ar    1  UNL1        0.0100
     23 C          63.2442   86.7310   15.9999 C.ar    1  UNL1        0.0684
     24 C          64.1359   86.7924   14.7954 C.ar    1  UNL1        0.0100
     25 C          64.1364   85.6662   13.8045 C.ar    1  UNL1       -0.0028
     26 C          63.2436   87.8572   16.9908 C.1     1  UNL1        0.1004
     27 N          63.2430   88.9834   17.9816 N.1     1  UNL1       -0.1908
     28 C          62.8401   81.9742   13.4583 C.ar    1  UNL1        0.0094
     29 C          61.3870   81.6098   13.5350 C.ar    1  UNL1       -0.0004
     30 C          60.9812   80.2316   13.9659 C.ar    1  UNL1        0.0204
     31 C          62.0284   79.2177   14.3202 C.ar    1  UNL1        0.0989
     32 N          63.4815   79.5821   14.2435 N.ar    1  UNL1       -0.2426
     33 C          63.8873   80.9605   13.8126 C.ar    1  UNL1        0.0954
@<TRIPOS>BOND
     1    15    16    1
     2    16    17    2
     3    16    18    2
     4    16     9    1
     5     9    10   ar
     6    10    11   ar
     7    11    12   ar
     8    12     1    1
     9     1     2    1
    10     2     3    1
    11     3     4    1
    12     4     5   am
    13     5     6    2
    14     5    19    1
    15    19    20    1
    16    20    21   ar
    17    21    22   ar
    18    22    23   ar
    19    23    26    1
    20    26    27    3
    21    23    24   ar
    22    24    25   ar
    23    19    28    1
    24    28    29   ar
    25    29    30   ar
    26    30    31   ar
    27    31    32   ar
    28    32    33   ar
    29     4     7    1
    30     7     8    1
    31    12    13   ar
    32    13    14   ar
    33    14     9   ar
    34     8     1    1
    35    25    20   ar
    36    33    28   ar
@<TRIPOS>MOLECULE
*****
 33 36 0 0 0
SMALL
GASTEIGER

@<TRIPOS>ATOM
      1 N          63.4405   85.8209   14.4601 N.pl3   1  UNL1       -0.3041
      2 C          64.0780   86.7118   13.4355 C.3     1  UNL1        0.1123
      3 C          64.2867   88.1672   13.7328 C.3     1  UNL1        0.1148
      4 N          63.8581   88.7316   15.0548 N.am    1  UNL1       -0.2755
      5 C          64.0668   90.1869   15.3521 C.2     1  UNL1        0.2335
      6 O          63.6382   90.7513   16.6741 O.2     1  UNL1       -0.2742
      7 C          63.2206   87.8407   16.0794 C.3     1  UNL1        0.1148
      8 C          63.0119   86.3853   15.7820 C.3     1  UNL1        0.1123
      9 C          62.8143   81.4549   13.5681 C.ar    1  UNL1        0.1058
     10 C          63.3070   82.3770   12.4925 C.ar    1  UNL1        0.0196
     11 C          63.5157   83.8323   12.7898 C.ar    1  UNL1        0.0158
     12 C          63.2318   84.3656   14.1627 C.ar    1  UNL1        0.0480
     13 C          62.7391   83.4435   15.2383 C.ar    1  UNL1        0.0158
     14 C          62.5303   81.9881   14.9410 C.ar    1  UNL1        0.0196
     15 C          62.3968   78.5442   12.9734 C.3     1  UNL1        0.1816
     16 S          62.6055   79.9996   13.2707 S.O2    1  UNL1        0.0105
     17 O          62.5806   79.7028   14.7408 O.2     1  UNL1       -0.1686
     18 O          62.6304   80.2963   11.8006 O.2     1  UNL1       -0.1686
     19 C          64.7042   91.0779   14.3275 C.3     1  UNL1        0.1226
     20 C          65.9416   91.8523   14.6727 C.ar    1  UNL1       -0.0097
     21 C          67.1038   91.1594   15.3203 C.ar    1  UNL1       -0.0028
     22 C          68.3412   91.9338   15.6655 C.ar    1  UNL1        0.0100
     23 C          68.4164   93.4011   15.3630 C.ar    1  UNL1        0.0684
     24 C          67.2542   94.0939   14.7155 C.ar    1  UNL1        0.0100
     25 C          66.0169   93.3195   14.3703 C.ar    1  UNL1       -0.0028
     26 C          69.6538   94.1756   15.7082 C.1     1  UNL1        0.1004
     27 N          70.8911   94.9500   16.0534 N.1     1  UNL1       -0.1908
     28 C          64.1043   91.1944   12.9576 C.ar    1  UNL1        0.0094
     29 C          62.7539   90.6045   12.6776 C.ar    1  UNL1       -0.0004
     30 C          62.1539   90.7210   11.3078 C.ar    1  UNL1        0.0204
     31 C          62.9044   91.4274   10.2179 C.ar    1  UNL1        0.0989
     32 N          64.2548   92.0173   10.4979 N.ar    1  UNL1       -0.2426
     33 C          64.8547   91.9008   11.8678 C.ar    1  UNL1        0.0954
@<TRIPOS>BOND
     1    15    16    1
     2    16    17    2
     3    16    18    2
     4    16     9    1
     5     9    10   ar
     6    10    11   ar
     7    11    12   ar
     8    12     1    1
     9     1     2    1
    10     2     3    1
    11     3     4    1
    12     4     5   am
    13     5     6    2
    14     5    19    1
    15    19    20    1
    16    20    21   ar
    17    21    22   ar
    18    22    23   ar
    19    23    26    1
    20    26    27    3
    21    23    24   ar
    22    24    25   ar
    23    19    28    1
    24    28    29   ar
    25    29    30   ar
    26    30    31   ar
    27    31    32   ar
    28    32    33   ar
    29     4     7    1
    30     7     8    1
    31    12    13   ar
    32    13    14   ar
    33    14     9   ar
    34     8     1    1
    35    25    20   ar
    36    33    28   ar
