@<TRIPOS>MOLECULE
*****
 30 34 0 0 0
SMALL
GASTEIGER

@<TRIPOS>ATOM
      1 O          61.8182   89.0573   12.6176 O.2     1  UNL1       -0.2677
      2 C          62.4980   89.8895   11.5710 C.2     1  UNL1        0.2738
      3 C          63.5595   90.9204   11.8165 C.2     1  UNL1        0.0820
      4 C          64.2185   91.4026   13.0749 C.2     1  UNL1        0.0530
      5 N          65.2710   92.4691   13.0090 N.am    1  UNL1       -0.2604
      6 C          65.6648   93.0536   11.6849 C.2     1  UNL1        0.2352
      7 O          66.7175   94.1202   11.6191 O.2     1  UNL1       -0.2741
      8 C          65.0059   92.5715   10.4265 C.3     1  UNL1        0.1330
      9 C          63.9532   91.5049   10.4923 C.2     1  UNL1        0.0914
     10 N          63.1351   90.8351    9.4284 N.2     1  UNL1       -0.1750
     11 N          62.2357   89.8368   10.0950 N.am    1  UNL1       -0.1544
     12 C          66.0471   93.0880   14.1337 C.3     1  UNL1        0.0994
     13 C          65.9621   92.7930   15.6020 C.3     1  UNL1        0.0392
     14 C          65.0802   91.8065   16.3081 C.3     1  UNL1        0.0745
     15 N          64.0653   90.8711   15.7206 N.3     1  UNL1       -0.2641
     16 C          63.6818   90.6914   14.2816 C.3     1  UNL1        0.1147
     17 C          61.2475   88.9426    9.4065 C.ar    1  UNL1        0.0876
     18 C          60.1814   89.5350    8.5332 C.ar    1  UNL1        0.0177
     19 C          59.1933   88.6408    7.8448 C.ar    1  UNL1        0.0014
     20 C          59.2712   87.1543    8.0295 C.ar    1  UNL1        0.0010
     21 C          60.3373   86.5619    8.9027 C.ar    1  UNL1        0.0127
     22 C          61.3255   87.4560    9.5912 C.ar    1  UNL1        0.0732
     23 CL         62.3916   86.8637   10.4644 Cl      1  UNL1       -0.0809
     24 C          63.3378   90.0004   16.7016 C.3     1  UNL1        0.0994
     25 C          63.3804   88.5081   16.5555 C.ar    1  UNL1       -0.0061
     26 C          62.7289   87.6347   17.5864 C.ar    1  UNL1       -0.0029
     27 C          62.7716   86.1425   17.4402 C.ar    1  UNL1       -0.0003
     28 C          63.4657   85.5236   16.2633 C.ar    1  UNL1       -0.0000
     29 C          64.1171   86.3971   15.2324 C.ar    1  UNL1       -0.0003
     30 C          64.0746   87.8893   15.3785 C.ar    1  UNL1       -0.0029
@<TRIPOS>BOND
     1     1     2    2
     2     2     3    1
     3     3     4    2
     4     4     5    1
     5     5     6   am
     6     6     7    2
     7     6     8    1
     8     8     9    1
     9     9    10    2
    10    10    11    1
    11    11    17    1
    12    17    18   ar
    13    18    19   ar
    14    19    20   ar
    15    20    21   ar
    16    21    22   ar
    17    22    23    1
    18     5    12    1
    19    12    13    1
    20    13    14    1
    21    14    15    1
    22    15    24    1
    23    24    25    1
    24    25    26   ar
    25    26    27   ar
    26    27    28   ar
    27    28    29   ar
    28    29    30   ar
    29    15    16    1
    30    11     2   am
    31    22    17   ar
    32    30    25   ar
    33     9     3    1
    34    16     4    1
@<TRIPOS>MOLECULE
*****
 30 34 0 0 0
SMALL
GASTEIGER

@<TRIPOS>ATOM
      1 O          64.9762   88.6786   14.3302 O.2     1  UNL1       -0.2677
      2 C          64.4510   89.7272   13.3950 C.2     1  UNL1        0.2738
      3 C          63.4823   89.5018   12.2722 C.2     1  UNL1        0.0820
      4 C          62.7936   88.2660   11.7735 C.2     1  UNL1        0.0530
      5 N          61.8575   88.3491   10.6045 N.am    1  UNL1       -0.2604
      6 C          61.6100   89.6678    9.9340 C.2     1  UNL1        0.2352
      7 O          60.6738   89.7508    8.7650 O.2     1  UNL1       -0.2741
      8 C          62.2986   90.9036   10.4326 C.3     1  UNL1        0.1330
      9 C          63.2348   90.8206   11.6017 C.2     1  UNL1        0.0914
     10 N          64.0505   91.8611   12.3102 N.2     1  UNL1       -0.1750
     11 N          64.8021   91.1853   13.4186 N.am    1  UNL1       -0.1544
     12 C          61.0747   87.2477    9.9531 C.3     1  UNL1        0.0994
     13 C          61.0347   85.7913   10.3100 C.3     1  UNL1        0.0392
     14 C          61.7676   85.0766   11.4063 C.3     1  UNL1        0.0745
     15 N          62.7216   85.6417   12.4165 N.3     1  UNL1       -0.2641
     16 C          63.1782   87.0611   12.5800 C.3     1  UNL1        0.1147
     17 C          65.7402   91.8509   14.3814 C.ar    1  UNL1        0.0876
     18 C          65.3204   92.0751   15.8039 C.ar    1  UNL1        0.0177
     19 C          66.2585   92.7407   16.7667 C.ar    1  UNL1        0.0014
     20 C          67.6165   93.1820   16.3070 C.ar    1  UNL1        0.0010
     21 C          68.0362   92.9578   14.8845 C.ar    1  UNL1        0.0127
     22 C          67.0982   92.2922   13.9217 C.ar    1  UNL1        0.0732
     23 CL         67.5179   92.0680   12.4992 Cl      1  UNL1       -0.0809
     24 C          63.2947   84.6572   13.3924 C.3     1  UNL1        0.0994
     25 C          62.9118   83.2093   13.3094 C.ar    1  UNL1       -0.0061
     26 C          63.4244   82.3613   12.1832 C.ar    1  UNL1       -0.0029
     27 C          63.0414   80.9134   12.1003 C.ar    1  UNL1       -0.0003
     28 C          62.1459   80.3135   13.1434 C.ar    1  UNL1       -0.0000
     29 C          61.6333   81.1614   14.2695 C.ar    1  UNL1       -0.0003
     30 C          62.0162   82.6093   14.3526 C.ar    1  UNL1       -0.0029
@<TRIPOS>BOND
     1     1     2    2
     2     2     3    1
     3     3     4    2
     4     4     5    1
     5     5     6   am
     6     6     7    2
     7     6     8    1
     8     8     9    1
     9     9    10    2
    10    10    11    1
    11    11    17    1
    12    17    18   ar
    13    18    19   ar
    14    19    20   ar
    15    20    21   ar
    16    21    22   ar
    17    22    23    1
    18     5    12    1
    19    12    13    1
    20    13    14    1
    21    14    15    1
    22    15    24    1
    23    24    25    1
    24    25    26   ar
    25    26    27   ar
    26    27    28   ar
    27    28    29   ar
    28    29    30   ar
    29    15    16    1
    30    11     2   am
    31    22    17   ar
    32    30    25   ar
    33     9     3    1
    34    16     4    1
@<TRIPOS>MOLECULE
*****
 30 34 0 0 0
SMALL
GASTEIGER

@<TRIPOS>ATOM
      1 O          61.7639   85.1234   11.3025 O.2     1  UNL1       -0.2677
      2 C          62.6471   85.3440   12.4947 C.2     1  UNL1        0.2738
      3 C          63.1933   86.6629   12.9554 C.2     1  UNL1        0.0820
      4 C          63.0424   88.0549   12.4172 C.2     1  UNL1        0.0530
      5 N          63.7211   89.2023   13.1046 N.am    1  UNL1       -0.2604
      6 C          64.5507   88.9580   14.3301 C.2     1  UNL1        0.2352
      7 O          65.2295   90.1055   15.0175 O.2     1  UNL1       -0.2741
      8 C          64.7016   87.5660   14.8684 C.3     1  UNL1        0.1330
      9 C          64.0229   86.4184   14.1810 C.2     1  UNL1        0.0914
     10 N          63.9894   84.9485   14.4778 N.2     1  UNL1       -0.1750
     11 N          63.1391   84.2845   13.4357 N.am    1  UNL1       -0.1544
     12 C          63.7018   90.6565   12.7370 C.3     1  UNL1        0.0994
     13 C          62.9988   91.3223   11.5912 C.3     1  UNL1        0.0392
     14 C          62.1418   90.6983   10.5302 C.3     1  UNL1        0.0745
     15 N          61.7758   89.2545   10.3526 N.3     1  UNL1       -0.2641
     16 C          62.1767   88.0780   11.1925 C.3     1  UNL1        0.1147
     17 C          62.8343   82.8182   13.3495 C.ar    1  UNL1        0.0876
     18 C          61.9306   82.1793   14.3620 C.ar    1  UNL1        0.0177
     19 C          61.6259   80.7131   14.2759 C.ar    1  UNL1        0.0014
     20 C          62.2248   79.8858   13.1772 C.ar    1  UNL1        0.0010
     21 C          63.1285   80.5248   12.1648 C.ar    1  UNL1        0.0127
     22 C          63.4333   81.9910   12.2509 C.ar    1  UNL1        0.0732
     23 CL         64.3369   82.6300   11.2384 Cl      1  UNL1       -0.0809
     24 C          60.8923   88.9464    9.1804 C.3     1  UNL1        0.0994
     25 C          60.9638   87.6012    8.5203 C.ar    1  UNL1       -0.0061
     26 C          59.7612   87.0466    7.8159 C.ar    1  UNL1       -0.0029
     27 C          59.8328   85.7015    7.1559 C.ar    1  UNL1       -0.0003
     28 C          61.1067   84.9110    7.2004 C.ar    1  UNL1       -0.0000
     29 C          62.3093   85.4656    7.9049 C.ar    1  UNL1       -0.0003
     30 C          62.2379   86.8107    8.5649 C.ar    1  UNL1       -0.0029
@<TRIPOS>BOND
     1     1     2    2
     2     2     3    1
     3     3     4    2
     4     4     5    1
     5     5     6   am
     6     6     7    2
     7     6     8    1
     8     8     9    1
     9     9    10    2
    10    10    11    1
    11    11    17    1
    12    17    18   ar
    13    18    19   ar
    14    19    20   ar
    15    20    21   ar
    16    21    22   ar
    17    22    23    1
    18     5    12    1
    19    12    13    1
    20    13    14    1
    21    14    15    1
    22    15    24    1
    23    24    25    1
    24    25    26   ar
    25    26    27   ar
    26    27    28   ar
    27    28    29   ar
    28    29    30   ar
    29    15    16    1
    30    11     2   am
    31    22    17   ar
    32    30    25   ar
    33     9     3    1
    34    16     4    1
@<TRIPOS>MOLECULE
*****
 30 34 0 0 0
SMALL
GASTEIGER

@<TRIPOS>ATOM
      1 O          63.8026   85.8927   13.7828 O.2     1  UNL1       -0.2677
      2 C          62.9636   85.7951   12.5432 C.2     1  UNL1        0.2738
      3 C          62.5555   86.9386   11.6625 C.2     1  UNL1        0.0820
      4 C          62.8328   88.4109   11.7362 C.2     1  UNL1        0.0530
      5 N          62.2796   89.3315   10.6892 N.am    1  UNL1       -0.2604
      6 C          61.4492   88.7800    9.5684 C.2     1  UNL1        0.2352
      7 O          60.8961   89.7008    8.5213 O.2     1  UNL1       -0.2741
      8 C          61.1719   87.3077    9.4946 C.3     1  UNL1        0.1330
      9 C          61.7251   86.3870   10.5416 C.2     1  UNL1        0.0914
     10 N          61.6200   84.9025   10.7297 N.2     1  UNL1       -0.1750
     11 N          62.3854   84.5367   11.9668 N.am    1  UNL1       -0.1544
     12 C          62.4347   90.8192   10.5755 C.3     1  UNL1        0.0994
     13 C          63.1813   91.7536   11.4809 C.3     1  UNL1        0.0392
     14 C          63.9571   91.4310   12.7234 C.3     1  UNL1        0.0745
     15 N          64.1780   90.0945   13.3676 N.3     1  UNL1       -0.2641
     16 C          63.6776   88.7504   12.9282 C.3     1  UNL1        0.1147
     17 C          62.5447   83.1551   12.5287 C.ar    1  UNL1        0.0876
     18 C          62.0143   82.8353   13.8949 C.ar    1  UNL1        0.0177
     19 C          62.1736   81.4537   14.4567 C.ar    1  UNL1        0.0014
     20 C          62.8633   80.3918   13.6525 C.ar    1  UNL1        0.0010
     21 C          63.3937   80.7116   12.2864 C.ar    1  UNL1        0.0127
     22 C          63.2344   82.0932   11.7244 C.ar    1  UNL1        0.0732
     23 CL         63.7648   82.4131   10.3582 Cl      1  UNL1       -0.0809
     24 C          65.0092   90.1032   14.6162 C.3     1  UNL1        0.0994
     25 C          66.0557   91.1596   14.8132 C.ar    1  UNL1       -0.0061
     26 C          65.9074   92.1659   15.9156 C.ar    1  UNL1       -0.0029
     27 C          66.9539   93.2223   16.1125 C.ar    1  UNL1       -0.0003
     28 C          68.1487   93.2725   15.2071 C.ar    1  UNL1       -0.0000
     29 C          68.2970   92.2662   14.1047 C.ar    1  UNL1       -0.0003
     30 C          67.2506   91.2097   13.9077 C.ar    1  UNL1       -0.0029
@<TRIPOS>BOND
     1     1     2    2
     2     2     3    1
     3     3     4    2
     4     4     5    1
     5     5     6   am
     6     6     7    2
     7     6     8    1
     8     8     9    1
     9     9    10    2
    10    10    11    1
    11    11    17    1
    12    17    18   ar
    13    18    19   ar
    14    19    20   ar
    15    20    21   ar
    16    21    22   ar
    17    22    23    1
    18     5    12    1
    19    12    13    1
    20    13    14    1
    21    14    15    1
    22    15    24    1
    23    24    25    1
    24    25    26   ar
    25    26    27   ar
    26    27    28   ar
    27    28    29   ar
    28    29    30   ar
    29    15    16    1
    30    11     2   am
    31    22    17   ar
    32    30    25   ar
    33     9     3    1
    34    16     4    1
@<TRIPOS>MOLECULE
*****
 30 34 0 0 0
SMALL
GASTEIGER

@<TRIPOS>ATOM
      1 O          63.8043   90.5051   10.0319 O.2     1  UNL1       -0.2677
      2 C          63.1185   90.0678   11.2922 C.2     1  UNL1        0.2738
      3 C          63.5121   90.4499   12.6883 C.2     1  UNL1        0.0820
      4 C          64.6181   91.3135   13.2185 C.2     1  UNL1        0.0530
      5 N          64.7674   91.5171   14.6970 N.am    1  UNL1       -0.2604
      6 C          63.8109   90.8572   15.6454 C.2     1  UNL1        0.2352
      7 O          63.9603   91.0609   17.1240 O.2     1  UNL1       -0.2741
      8 C          62.7049   89.9936   15.1153 C.3     1  UNL1        0.1330
      9 C          62.5555   89.7899   13.6367 C.2     1  UNL1        0.0914
     10 N          61.5707   89.0000   12.8267 N.2     1  UNL1       -0.1750
     11 N          61.9186   89.1717   11.3778 N.am    1  UNL1       -0.1544
     12 C          65.7916   92.3318   15.4302 C.3     1  UNL1        0.0994
     13 C          66.9193   93.1441   14.8657 C.3     1  UNL1        0.0392
     14 C          67.3013   93.3422   13.4289 C.3     1  UNL1        0.0745
     15 N          66.6501   92.7771   12.2014 N.3     1  UNL1       -0.2641
     16 C          65.4560   91.8742   12.1078 C.3     1  UNL1        0.1147
     17 C          61.1938   88.5555   10.2180 C.ar    1  UNL1        0.0876
     18 C          60.4514   89.4271    9.2488 C.ar    1  UNL1        0.0177
     19 C          59.7267   88.8109    8.0891 C.ar    1  UNL1        0.0014
     20 C          59.7443   87.3231    7.8985 C.ar    1  UNL1        0.0010
     21 C          60.4867   86.4516    8.8676 C.ar    1  UNL1        0.0127
     22 C          61.2115   87.0677   10.0274 C.ar    1  UNL1        0.0732
     23 CL         61.9539   86.1963   10.9966 Cl      1  UNL1       -0.0809
     24 C          67.2758   93.1663   10.8950 C.3     1  UNL1        0.0994
     25 C          66.8059   94.3956   10.1751 C.ar    1  UNL1       -0.0061
     26 C          67.3798   94.7447    8.8339 C.ar    1  UNL1       -0.0029
     27 C          66.9099   95.9739    8.1141 C.ar    1  UNL1       -0.0003
     28 C          65.8662   96.8540    8.7353 C.ar    1  UNL1       -0.0000
     29 C          65.2923   96.5049   10.0765 C.ar    1  UNL1       -0.0003
     30 C          65.7621   95.2757   10.7964 C.ar    1  UNL1       -0.0029
@<TRIPOS>BOND
     1     1     2    2
     2     2     3    1
     3     3     4    2
     4     4     5    1
     5     5     6   am
     6     6     7    2
     7     6     8    1
     8     8     9    1
     9     9    10    2
    10    10    11    1
    11    11    17    1
    12    17    18   ar
    13    18    19   ar
    14    19    20   ar
    15    20    21   ar
    16    21    22   ar
    17    22    23    1
    18     5    12    1
    19    12    13    1
    20    13    14    1
    21    14    15    1
    22    15    24    1
    23    24    25    1
    24    25    26   ar
    25    26    27   ar
    26    27    28   ar
    27    28    29   ar
    28    29    30   ar
    29    15    16    1
    30    11     2   am
    31    22    17   ar
    32    30    25   ar
    33     9     3    1
    34    16     4    1
@<TRIPOS>MOLECULE
*****
 30 34 0 0 0
SMALL
GASTEIGER

@<TRIPOS>ATOM
      1 O          64.0659   87.8928   13.1186 O.2     1  UNL1       -0.2677
      2 C          63.2523   88.9735   12.4705 C.2     1  UNL1        0.2738
      3 C          62.3730   88.8128   11.2660 C.2     1  UNL1        0.0820
      4 C          62.0571   87.6258   10.4049 C.2     1  UNL1        0.0530
      5 N          61.1208   87.7707    9.2422 N.am    1  UNL1       -0.2604
      6 C          60.5002   89.1025    8.9403 C.2     1  UNL1        0.2352
      7 O          59.5638   89.2473    7.7774 O.2     1  UNL1       -0.2741
      8 C          60.8160   90.2895    9.8013 C.3     1  UNL1        0.1330
      9 C          61.7523   90.1447   10.9641 C.2     1  UNL1        0.0914
     10 N          62.2481   91.1285   11.9822 N.2     1  UNL1       -0.1750
     11 N          63.1751   90.4046   12.9131 N.am    1  UNL1       -0.1544
     12 C          60.6745   86.7241    8.2646 C.3     1  UNL1        0.0994
     13 C          61.0545   85.2740    8.2087 C.3     1  UNL1        0.0392
     14 C          61.9745   84.5126    9.1163 C.3     1  UNL1        0.0745
     15 N          62.7418   85.0130   10.3040 N.3     1  UNL1       -0.2641
     16 C          62.7786   86.3986   10.8776 C.3     1  UNL1        0.1147
     17 C          63.8981   91.0063   14.0816 C.ar    1  UNL1        0.0876
     18 C          63.3944   90.7746   15.4754 C.ar    1  UNL1        0.0177
     19 C          64.1173   91.3763   16.6438 C.ar    1  UNL1        0.0014
     20 C          65.3440   92.2098   16.4186 C.ar    1  UNL1        0.0010
     21 C          65.8477   92.4414   15.0248 C.ar    1  UNL1        0.0127
     22 C          65.1248   91.8398   13.8563 C.ar    1  UNL1        0.0732
     23 CL         65.6284   92.0714   12.4625 Cl      1  UNL1       -0.0809
     24 C          63.5836   83.9931   11.0119 C.3     1  UNL1        0.0994
     25 C          63.0005   83.1890   12.1360 C.ar    1  UNL1       -0.0061
     26 C          62.7973   83.8190   13.4820 C.ar    1  UNL1       -0.0029
     27 C          62.2143   83.0149   14.6061 C.ar    1  UNL1       -0.0003
     28 C          61.8345   81.5809   14.3841 C.ar    1  UNL1       -0.0000
     29 C          62.0377   80.9509   13.0380 C.ar    1  UNL1       -0.0003
     30 C          62.6207   81.7549   11.9140 C.ar    1  UNL1       -0.0029
@<TRIPOS>BOND
     1     1     2    2
     2     2     3    1
     3     3     4    2
     4     4     5    1
     5     5     6   am
     6     6     7    2
     7     6     8    1
     8     8     9    1
     9     9    10    2
    10    10    11    1
    11    11    17    1
    12    17    18   ar
    13    18    19   ar
    14    19    20   ar
    15    20    21   ar
    16    21    22   ar
    17    22    23    1
    18     5    12    1
    19    12    13    1
    20    13    14    1
    21    14    15    1
    22    15    24    1
    23    24    25    1
    24    25    26   ar
    25    26    27   ar
    26    27    28   ar
    27    28    29   ar
    28    29    30   ar
    29    15    16    1
    30    11     2   am
    31    22    17   ar
    32    30    25   ar
    33     9     3    1
    34    16     4    1
