@<TRIPOS>MOLECULE
*****
 29 32 0 0 0
SMALL
GASTEIGER

@<TRIPOS>ATOM
      1 C          62.1481   87.1721   11.5145 C.3     1  UNL1        0.0971
      2 C          63.1486   88.1978   11.9581 C.3     1  UNL1        0.1137
      3 N          62.7489   89.6400   12.0611 N.pl3   1  UNL1       -0.2763
      4 C          61.3487   90.0563   11.7204 C.3     1  UNL1        0.1107
      5 C          60.3482   89.0305   11.2767 C.3     1  UNL1        0.0906
      6 N          60.7479   87.5885   11.1738 N.3     1  UNL1       -0.2923
      7 H          60.5834   87.3056   10.2077 H       1  UNL1        0.1236
      8 C          63.7494   90.6657   12.5047 C.ar    1  UNL1        0.2035
      9 N          64.4985   91.4725   11.4859 N.ar    1  UNL1       -0.2148
     10 C          65.4990   92.4982   11.9295 C.ar    1  UNL1        0.0890
     11 C          65.7505   92.7171   13.3920 C.ar    1  UNL1        0.0800
     12 C          65.0014   91.9103   14.4108 C.ar    1  UNL1        0.2645
     13 O          65.2529   92.1292   15.8733 O.2     1  UNL1       -0.2668
     14 N          64.0009   90.8846   13.9671 N.ar    1  UNL1       -0.2667
     15 C          63.2518   90.0778   14.9860 C.3     1  UNL1        0.1363
     16 C          66.2480   93.3050   10.9107 C.ar    1  UNL1        0.0210
     17 C          67.3744   92.6816   10.1409 C.ar    1  UNL1        0.0222
     18 C          68.1235   93.4884    9.1221 C.ar    1  UNL1        0.0989
     19 N          67.7461   94.9186    8.8730 N.ar    1  UNL1       -0.2423
     20 C          66.6197   95.5421    9.6428 C.ar    1  UNL1        0.0989
     21 C          65.8706   94.7353   10.6616 C.ar    1  UNL1        0.0222
     22 C          63.0079   83.4365   12.5421 C.ar    1  UNL1        0.1385
     23 C          63.3470   82.8458   11.2057 C.ar    1  UNL1        0.0369
     24 C          63.2865   83.6972    9.9722 C.ar    1  UNL1        0.0028
     25 C          62.8868   85.1392   10.0751 C.ar    1  UNL1       -0.0027
     26 C          62.5477   85.7299   11.4115 C.ar    1  UNL1       -0.0033
     27 C          62.6083   84.8786   12.6450 C.ar    1  UNL1        0.0340
     28 C          61.8789   81.7663   14.1809 C.3     1  UNL1        0.2525
     29 O          63.0685   82.5851   13.7756 O.3     1  UNL1       -0.4714
@<TRIPOS>BOND
     1    28    29    1
     2    29    22    1
     3    22    23   ar
     4    23    24   ar
     5    24    25   ar
     6    25    26   ar
     7    26     1    1
     8     1     2    1
     9     2     3    1
    10     3     8    1
    11     8     9   ar
    12     9    10   ar
    13    10    16    1
    14    16    17   ar
    15    17    18   ar
    16    18    19   ar
    17    19    20   ar
    18    20    21   ar
    19    10    11   ar
    20    11    12   ar
    21    12    13    2
    22    12    14   ar
    23    14    15    1
    24     3     4    1
    25     4     5    1
    26     5     6    1
    27    26    27   ar
    28    27    22   ar
    29     6     1    1
    30    14     8   ar
    31    21    16   ar
    32     6     7    1
@<TRIPOS>MOLECULE
*****
 29 32 0 0 0
SMALL
GASTEIGER

@<TRIPOS>ATOM
      1 C          65.1617   91.9907   12.0900 C.3     1  UNL1        0.0971
      2 C          64.3817   90.8271   11.5538 C.3     1  UNL1        0.1137
      3 N          63.5560   89.9861   12.4818 N.pl3   1  UNL1       -0.2763
      4 C          63.5105   90.3087   13.9459 C.3     1  UNL1        0.1107
      5 C          64.2906   91.4723   14.4822 C.3     1  UNL1        0.0906
      6 N          65.1162   92.3133   13.5542 N.3     1  UNL1       -0.2923
      7 H          66.0766   92.2715   13.8950 H       1  UNL1        0.1236
      8 C          62.7760   88.8225   11.9455 C.ar    1  UNL1        0.2035
      9 N          63.1778   87.4220   12.3020 N.ar    1  UNL1       -0.2148
     10 C          62.3978   86.2584   11.7657 C.ar    1  UNL1        0.0890
     11 C          61.2158   86.4954   10.8730 C.ar    1  UNL1        0.0800
     12 C          60.8140   87.8959   10.5165 C.ar    1  UNL1        0.2645
     13 O          59.6321   88.1328    9.6238 O.2     1  UNL1       -0.2668
     14 N          61.5941   89.0595   11.0528 N.ar    1  UNL1       -0.2667
     15 C          61.1923   90.4600   10.6963 C.3     1  UNL1        0.1363
     16 C          62.7996   84.8579   12.1222 C.ar    1  UNL1        0.0210
     17 C          63.1835   83.8900   11.0425 C.ar    1  UNL1        0.0222
     18 C          63.5854   82.4895   11.3990 C.ar    1  UNL1        0.0989
     19 N          63.6033   82.0569   12.8351 N.ar    1  UNL1       -0.2423
     20 C          63.2194   83.0248   13.9149 C.ar    1  UNL1        0.0989
     21 C          62.8175   84.4253   13.5584 C.ar    1  UNL1        0.0222
     22 C          66.3953   95.0799    9.9256 C.ar    1  UNL1        0.1385
     23 C          67.6386   94.5137    9.3063 C.ar    1  UNL1        0.0369
     24 C          68.0563   93.1065    9.6149 C.ar    1  UNL1        0.0028
     25 C          67.2307   92.2655   10.5428 C.ar    1  UNL1       -0.0027
     26 C          65.9874   92.8317   11.1621 C.ar    1  UNL1       -0.0033
     27 C          65.5697   94.2389   10.8535 C.ar    1  UNL1        0.0340
     28 C          64.5232   96.8544    9.6147 C.3     1  UNL1        0.2525
     29 O          65.9775   96.4872    9.6170 O.3     1  UNL1       -0.4714
@<TRIPOS>BOND
     1    28    29    1
     2    29    22    1
     3    22    23   ar
     4    23    24   ar
     5    24    25   ar
     6    25    26   ar
     7    26     1    1
     8     1     2    1
     9     2     3    1
    10     3     8    1
    11     8     9   ar
    12     9    10   ar
    13    10    16    1
    14    16    17   ar
    15    17    18   ar
    16    18    19   ar
    17    19    20   ar
    18    20    21   ar
    19    10    11   ar
    20    11    12   ar
    21    12    13    2
    22    12    14   ar
    23    14    15    1
    24     3     4    1
    25     4     5    1
    26     5     6    1
    27    26    27   ar
    28    27    22   ar
    29     6     1    1
    30    14     8   ar
    31    21    16   ar
    32     6     7    1
@<TRIPOS>MOLECULE
*****
 29 32 0 0 0
SMALL
GASTEIGER

@<TRIPOS>ATOM
      1 C          65.0215   92.0501   12.5212 C.3     1  UNL1        0.0971
      2 C          64.2764   90.9218   11.8719 C.3     1  UNL1        0.1137
      3 N          63.5323   89.9301   12.7163 N.pl3   1  UNL1       -0.2763
      4 C          63.5333   90.0669   14.2101 C.3     1  UNL1        0.1107
      5 C          64.2785   91.1953   14.8594 C.3     1  UNL1        0.0906
      6 N          65.0225   92.1869   14.0149 N.3     1  UNL1       -0.2923
      7 H          65.9975   92.1545   14.3129 H       1  UNL1        0.1236
      8 C          62.7872   88.8018   12.0670 C.ar    1  UNL1        0.2035
      9 N          63.1738   87.3820   12.3581 N.ar    1  UNL1       -0.2148
     10 C          62.4287   86.2537   11.7088 C.ar    1  UNL1        0.0890
     11 C          61.2970   86.5451   10.7683 C.ar    1  UNL1        0.0800
     12 C          60.9105   87.9649   10.4772 C.ar    1  UNL1        0.2645
     13 O          59.7789   88.2564    9.5368 O.2     1  UNL1       -0.2668
     14 N          61.6556   89.0933   11.1266 N.ar    1  UNL1       -0.2667
     15 C          61.2691   90.5131   10.8355 C.3     1  UNL1        0.1363
     16 C          62.8152   84.8339   11.9999 C.ar    1  UNL1        0.0210
     17 C          62.7657   84.3165   13.4070 C.ar    1  UNL1        0.0222
     18 C          63.1522   82.8967   13.6981 C.ar    1  UNL1        0.0989
     19 N          63.5883   81.9942   12.5821 N.ar    1  UNL1       -0.2423
     20 C          63.6378   82.5116   11.1750 C.ar    1  UNL1        0.0989
     21 C          63.2513   83.9314   10.8839 C.ar    1  UNL1        0.0222
     22 C          67.2597   93.5712    9.6183 C.ar    1  UNL1        0.1385
     23 C          67.2538   95.0249    9.9879 C.ar    1  UNL1        0.0369
     24 C          66.5039   95.4870   11.2020 C.ar    1  UNL1        0.0028
     25 C          65.7598   94.4955   12.0464 C.ar    1  UNL1       -0.0027
     26 C          65.7656   93.0418   11.6768 C.ar    1  UNL1       -0.0033
     27 C          66.5156   92.5796   10.4627 C.ar    1  UNL1        0.0340
     28 C          69.0560   92.0417    8.5302 C.3     1  UNL1        0.2525
     29 O          68.0097   93.1090    8.4042 O.3     1  UNL1       -0.4714
@<TRIPOS>BOND
     1    28    29    1
     2    29    22    1
     3    22    23   ar
     4    23    24   ar
     5    24    25   ar
     6    25    26   ar
     7    26     1    1
     8     1     2    1
     9     2     3    1
    10     3     8    1
    11     8     9   ar
    12     9    10   ar
    13    10    16    1
    14    16    17   ar
    15    17    18   ar
    16    18    19   ar
    17    19    20   ar
    18    20    21   ar
    19    10    11   ar
    20    11    12   ar
    21    12    13    2
    22    12    14   ar
    23    14    15    1
    24     3     4    1
    25     4     5    1
    26     5     6    1
    27    26    27   ar
    28    27    22   ar
    29     6     1    1
    30    14     8   ar
    31    21    16   ar
    32     6     7    1
@<TRIPOS>MOLECULE
*****
 29 32 0 0 0
SMALL
GASTEIGER

@<TRIPOS>ATOM
      1 C          62.0578   87.7722   11.1413 C.3     1  UNL1        0.0971
      2 C          63.1361   88.7145   11.5877 C.3     1  UNL1        0.1137
      3 N          62.7742   90.0639   12.1337 N.pl3   1  UNL1       -0.2763
      4 C          61.3340   90.4711   12.2333 C.3     1  UNL1        0.1107
      5 C          60.2556   89.5287   11.7868 C.3     1  UNL1        0.0906
      6 N          60.6176   88.1793   11.2409 N.3     1  UNL1       -0.2923
      7 H          60.2318   88.1301   10.2979 H       1  UNL1        0.1236
      8 C          63.8525   91.0062   12.5801 C.ar    1  UNL1        0.2035
      9 N          64.5342   91.8935   11.5810 N.ar    1  UNL1       -0.2148
     10 C          65.6125   92.8357   12.0274 C.ar    1  UNL1        0.0890
     11 C          66.0092   92.8908   13.4730 C.ar    1  UNL1        0.0800
     12 C          65.3276   92.0035   14.4721 C.ar    1  UNL1        0.2645
     13 O          65.7243   92.0586   15.9176 O.2     1  UNL1       -0.2668
     14 N          64.2492   91.0612   14.0256 N.ar    1  UNL1       -0.2667
     15 C          63.5676   90.1740   15.0247 C.3     1  UNL1        0.1363
     16 C          66.2941   93.7230   11.0283 C.ar    1  UNL1        0.0210
     17 C          67.1354   93.1213    9.9420 C.ar    1  UNL1        0.0222
     18 C          67.8171   94.0086    8.9429 C.ar    1  UNL1        0.0989
     19 N          67.6573   95.4974    9.0301 N.ar    1  UNL1       -0.2423
     20 C          66.8159   96.0992   10.1164 C.ar    1  UNL1        0.0989
     21 C          66.1343   95.2119   11.1155 C.ar    1  UNL1        0.0222
     22 C          62.8650   84.8619    8.5667 C.ar    1  UNL1        0.1385
     23 C          63.1435   83.7240    9.5033 C.ar    1  UNL1        0.0369
     24 C          63.0602   83.9354   10.9860 C.ar    1  UNL1        0.0028
     25 C          62.6983   85.2848   11.5320 C.ar    1  UNL1       -0.0027
     26 C          62.4197   86.4227   10.5954 C.ar    1  UNL1       -0.0033
     27 C          62.5031   86.2113    9.1127 C.ar    1  UNL1        0.0340
     28 C          61.6930   84.5311    6.2717 C.3     1  UNL1        0.2525
     29 O          62.9484   84.6505    7.0840 O.3     1  UNL1       -0.4714
@<TRIPOS>BOND
     1    28    29    1
     2    29    22    1
     3    22    23   ar
     4    23    24   ar
     5    24    25   ar
     6    25    26   ar
     7    26     1    1
     8     1     2    1
     9     2     3    1
    10     3     8    1
    11     8     9   ar
    12     9    10   ar
    13    10    16    1
    14    16    17   ar
    15    17    18   ar
    16    18    19   ar
    17    19    20   ar
    18    20    21   ar
    19    10    11   ar
    20    11    12   ar
    21    12    13    2
    22    12    14   ar
    23    14    15    1
    24     3     4    1
    25     4     5    1
    26     5     6    1
    27    26    27   ar
    28    27    22   ar
    29     6     1    1
    30    14     8   ar
    31    21    16   ar
    32     6     7    1
@<TRIPOS>MOLECULE
*****
 29 32 0 0 0
SMALL
GASTEIGER

@<TRIPOS>ATOM
      1 C          62.8840   87.6973   12.4239 C.3     1  UNL1        0.0971
      2 C          63.8344   88.8075   12.7615 C.3     1  UNL1        0.1137
      3 N          63.5054   90.2195   12.3766 N.pl3   1  UNL1       -0.2763
      4 C          62.2260   90.5212   11.6541 C.3     1  UNL1        0.1107
      5 C          61.2755   89.4108   11.3165 C.3     1  UNL1        0.0906
      6 N          61.6046   87.9989   11.7014 N.3     1  UNL1       -0.2923
      7 H          61.6178   87.4541   10.8392 H       1  UNL1        0.1236
      8 C          64.4558   91.3298   12.7142 C.ar    1  UNL1        0.2035
      9 N          64.9576   92.2419   11.6343 N.ar    1  UNL1       -0.2148
     10 C          65.9080   93.3522   11.9719 C.ar    1  UNL1        0.0890
     11 C          66.3567   93.5503   13.3895 C.ar    1  UNL1        0.0800
     12 C          65.8549   92.6382   14.4694 C.ar    1  UNL1        0.2645
     13 O          66.3035   92.8364   15.8869 O.2     1  UNL1       -0.2668
     14 N          64.9044   91.5279   14.1317 N.ar    1  UNL1       -0.2667
     15 C          64.4026   90.6158   15.2117 C.3     1  UNL1        0.1363
     16 C          66.4098   94.2643   10.8919 C.ar    1  UNL1        0.0210
     17 C          65.9373   95.6866   10.8320 C.ar    1  UNL1        0.0222
     18 C          66.4391   96.5987    9.7521 C.ar    1  UNL1        0.0989
     19 N          67.4133   96.0885    8.7321 N.ar    1  UNL1       -0.2423
     20 C          67.8859   94.6661    8.7920 C.ar    1  UNL1        0.0989
     21 C          67.3841   93.7540    9.8719 C.ar    1  UNL1        0.0222
     22 C          62.9691   83.7296   12.4104 C.ar    1  UNL1        0.1385
     23 C          63.8710   83.4614   13.5785 C.ar    1  UNL1        0.0369
     24 C          64.4440   84.6052   14.3618 C.ar    1  UNL1        0.0028
     25 C          64.1150   86.0171   13.9770 C.ar    1  UNL1       -0.0027
     26 C          63.2131   86.2853   12.8088 C.ar    1  UNL1       -0.0033
     27 C          62.6401   85.1415   12.0256 C.ar    1  UNL1        0.0340
     28 C          63.1980   81.3330   11.4336 C.3     1  UNL1        0.2525
     29 O          62.3962   82.5858   11.6271 O.3     1  UNL1       -0.4714
@<TRIPOS>BOND
     1    28    29    1
     2    29    22    1
     3    22    23   ar
     4    23    24   ar
     5    24    25   ar
     6    25    26   ar
     7    26     1    1
     8     1     2    1
     9     2     3    1
    10     3     8    1
    11     8     9   ar
    12     9    10   ar
    13    10    16    1
    14    16    17   ar
    15    17    18   ar
    16    18    19   ar
    17    19    20   ar
    18    20    21   ar
    19    10    11   ar
    20    11    12   ar
    21    12    13    2
    22    12    14   ar
    23    14    15    1
    24     3     4    1
    25     4     5    1
    26     5     6    1
    27    26    27   ar
    28    27    22   ar
    29     6     1    1
    30    14     8   ar
    31    21    16   ar
    32     6     7    1
@<TRIPOS>MOLECULE
*****
 29 32 0 0 0
SMALL
GASTEIGER

@<TRIPOS>ATOM
      1 C          62.1548   87.7657   11.1015 C.3     1  UNL1        0.0971
      2 C          62.8184   89.0458   11.5149 C.3     1  UNL1        0.1137
      3 N          63.6950   89.0773   12.7318 N.pl3   1  UNL1       -0.2763
      4 C          63.9078   87.8287   13.5353 C.3     1  UNL1        0.1107
      5 C          63.2442   86.5486   13.1218 C.3     1  UNL1        0.0906
      6 N          62.3677   86.5171   11.9050 N.3     1  UNL1       -0.2923
      7 H          61.4470   86.2048   12.2133 H       1  UNL1        0.1236
      8 C          64.3586   90.3575   13.1451 C.ar    1  UNL1        0.2035
      9 N          65.0071   91.2330   12.1142 N.ar    1  UNL1       -0.2148
     10 C          65.6707   92.5131   12.5275 C.ar    1  UNL1        0.0890
     11 C          65.6858   92.9177   13.9719 C.ar    1  UNL1        0.0800
     12 C          65.0373   92.0422   15.0029 C.ar    1  UNL1        0.2645
     13 O          65.0524   92.4467   16.4472 O.2     1  UNL1       -0.2668
     14 N          64.3737   90.7620   14.5894 N.ar    1  UNL1       -0.2667
     15 C          63.7252   89.8864   15.6204 C.3     1  UNL1        0.1363
     16 C          66.3191   93.3887   11.4966 C.ar    1  UNL1        0.0210
     17 C          67.1490   92.7764   10.4074 C.ar    1  UNL1        0.0222
     18 C          67.7975   93.6520    9.3764 C.ar    1  UNL1        0.0989
     19 N          67.6161   95.1398    9.4347 N.ar    1  UNL1       -0.2423
     20 C          66.7862   95.7522   10.5240 C.ar    1  UNL1        0.0989
     21 C          66.1378   94.8766   11.5549 C.ar    1  UNL1        0.0222
     22 C          60.2881   86.4453    7.8578 C.ar    1  UNL1        0.1385
     23 C          59.5254   87.6711    7.4509 C.ar    1  UNL1        0.0369
     24 C          59.6391   88.9284    8.2609 C.ar    1  UNL1        0.0028
     25 C          60.5156   88.9600    9.4778 C.ar    1  UNL1       -0.0027
     26 C          61.2783   87.7342    9.8846 C.ar    1  UNL1       -0.0033
     27 C          61.1646   86.4768    9.0746 C.ar    1  UNL1        0.0340
     28 C          61.3952   84.5932    6.4106 C.3     1  UNL1        0.2525
     29 O          60.1744   85.1879    7.0478 O.3     1  UNL1       -0.4714
@<TRIPOS>BOND
     1    28    29    1
     2    29    22    1
     3    22    23   ar
     4    23    24   ar
     5    24    25   ar
     6    25    26   ar
     7    26     1    1
     8     1     2    1
     9     2     3    1
    10     3     8    1
    11     8     9   ar
    12     9    10   ar
    13    10    16    1
    14    16    17   ar
    15    17    18   ar
    16    18    19   ar
    17    19    20   ar
    18    20    21   ar
    19    10    11   ar
    20    11    12   ar
    21    12    13    2
    22    12    14   ar
    23    14    15    1
    24     3     4    1
    25     4     5    1
    26     5     6    1
    27    26    27   ar
    28    27    22   ar
    29     6     1    1
    30    14     8   ar
    31    21    16   ar
    32     6     7    1
@<TRIPOS>MOLECULE
*****
 29 32 0 0 0
SMALL
GASTEIGER

@<TRIPOS>ATOM
      1 C          63.0239   84.6956   10.7472 C.3     1  UNL1        0.0971
      2 C          62.9054   85.5935   11.9429 C.3     1  UNL1        0.1137
      3 N          63.6218   85.2475   13.2146 N.pl3   1  UNL1       -0.2763
      4 C          64.4567   84.0037   13.2905 C.3     1  UNL1        0.1107
      5 C          64.5752   83.1058   12.0947 C.3     1  UNL1        0.0906
      6 N          63.8588   83.4518   10.8231 N.3     1  UNL1       -0.2923
      7 H          63.2405   82.6687   10.6111 H       1  UNL1        0.1236
      8 C          63.5033   86.1454   14.4103 C.ar    1  UNL1        0.2035
      9 N          63.9933   87.5611   14.3367 N.ar    1  UNL1       -0.2148
     10 C          63.8748   88.4590   15.5324 C.ar    1  UNL1        0.0890
     11 C          63.2662   87.9411   16.8018 C.ar    1  UNL1        0.0800
     12 C          62.7761   86.5253   16.8755 C.ar    1  UNL1        0.2645
     13 O          62.1676   86.0074   18.1449 O.2     1  UNL1       -0.2668
     14 N          62.8947   85.6274   15.6797 N.ar    1  UNL1       -0.2667
     15 C          62.4047   84.2116   15.7534 C.3     1  UNL1        0.1363
     16 C          64.3648   89.8748   15.4587 C.ar    1  UNL1        0.0210
     17 C          63.9201   90.8766   16.4826 C.ar    1  UNL1        0.0222
     18 C          64.4101   92.2924   16.4090 C.ar    1  UNL1        0.0989
     19 N          65.3449   92.7063   15.3114 N.ar    1  UNL1       -0.2423
     20 C          65.7897   91.7045   14.2873 C.ar    1  UNL1        0.0989
     21 C          65.2996   90.2887   14.3610 C.ar    1  UNL1        0.0222
     22 C          60.3657   86.2517    8.2447 C.ar    1  UNL1        0.1385
     23 C          60.8747   85.7335    6.9323 C.ar    1  UNL1        0.0369
     24 C          62.1002   84.8695    6.8915 C.ar    1  UNL1        0.0028
     25 C          62.8166   84.5235    8.1631 C.ar    1  UNL1       -0.0027
     26 C          62.3075   85.0416    9.4755 C.ar    1  UNL1       -0.0033
     27 C          61.0821   85.9057    9.5163 C.ar    1  UNL1        0.0340
     28 C          59.0995   88.3967    7.5062 C.3     1  UNL1        0.2525
     29 O          59.1403   87.1157    8.2855 O.3     1  UNL1       -0.4714
@<TRIPOS>BOND
     1    28    29    1
     2    29    22    1
     3    22    23   ar
     4    23    24   ar
     5    24    25   ar
     6    25    26   ar
     7    26     1    1
     8     1     2    1
     9     2     3    1
    10     3     8    1
    11     8     9   ar
    12     9    10   ar
    13    10    16    1
    14    16    17   ar
    15    17    18   ar
    16    18    19   ar
    17    19    20   ar
    18    20    21   ar
    19    10    11   ar
    20    11    12   ar
    21    12    13    2
    22    12    14   ar
    23    14    15    1
    24     3     4    1
    25     4     5    1
    26     5     6    1
    27    26    27   ar
    28    27    22   ar
    29     6     1    1
    30    14     8   ar
    31    21    16   ar
    32     6     7    1
@<TRIPOS>MOLECULE
*****
 29 32 0 0 0
SMALL
GASTEIGER

@<TRIPOS>ATOM
      1 C          62.7543   84.1767   10.9399 C.3     1  UNL1        0.0971
      2 C          62.4503   85.5621   11.4280 C.3     1  UNL1        0.1137
      3 N          62.4752   86.7169   10.4709 N.pl3   1  UNL1       -0.2763
      4 C          62.8042   86.4862    9.0257 C.3     1  UNL1        0.1107
      5 C          63.1081   85.1007    8.5376 C.3     1  UNL1        0.0906
      6 N          63.0832   83.9460    9.4947 N.3     1  UNL1       -0.2923
      7 H          64.0102   83.5213    9.4679 H       1  UNL1        0.1236
      8 C          62.1712   88.1022   10.9590 C.ar    1  UNL1        0.2035
      9 N          63.1895   88.8542   11.7638 N.ar    1  UNL1       -0.2148
     10 C          62.8855   90.2396   12.2519 C.ar    1  UNL1        0.0890
     11 C          61.5632   90.8731   11.9352 C.ar    1  UNL1        0.0800
     12 C          60.5449   90.1211   11.1303 C.ar    1  UNL1        0.2645
     13 O          59.2227   90.7546   10.8136 O.2     1  UNL1       -0.2668
     14 N          60.8490   88.7357   10.6422 N.ar    1  UNL1       -0.2667
     15 C          59.8307   87.9838    9.8374 C.3     1  UNL1        0.1363
     16 C          63.9038   90.9915   13.0567 C.ar    1  UNL1        0.0210
     17 C          63.9930   90.7802   14.5390 C.ar    1  UNL1        0.0222
     18 C          65.0112   91.5321   15.3439 C.ar    1  UNL1        0.0989
     19 N          65.9403   92.4953   14.6664 N.ar    1  UNL1       -0.2423
     20 C          65.8511   92.7067   13.1840 C.ar    1  UNL1        0.0989
     21 C          64.8328   91.9547   12.3791 C.ar    1  UNL1        0.0222
     22 C          62.7126   80.4608   12.3328 C.ar    1  UNL1        0.1385
     23 C          62.6795   80.7125   13.8111 C.ar    1  UNL1        0.0369
     24 C          62.6713   82.1190   14.3324 C.ar    1  UNL1        0.0028
     25 C          62.6962   83.2737   13.3754 C.ar    1  UNL1       -0.0027
     26 C          62.7293   83.0220   11.8970 C.ar    1  UNL1       -0.0033
     27 C          62.7376   81.6155   11.3757 C.ar    1  UNL1        0.0340
     28 C          62.7690   78.8025   10.3336 C.3     1  UNL1        0.2525
     29 O          62.7208   79.0543   11.8115 O.3     1  UNL1       -0.4714
@<TRIPOS>BOND
     1    28    29    1
     2    29    22    1
     3    22    23   ar
     4    23    24   ar
     5    24    25   ar
     6    25    26   ar
     7    26     1    1
     8     1     2    1
     9     2     3    1
    10     3     8    1
    11     8     9   ar
    12     9    10   ar
    13    10    16    1
    14    16    17   ar
    15    17    18   ar
    16    18    19   ar
    17    19    20   ar
    18    20    21   ar
    19    10    11   ar
    20    11    12   ar
    21    12    13    2
    22    12    14   ar
    23    14    15    1
    24     3     4    1
    25     4     5    1
    26     5     6    1
    27    26    27   ar
    28    27    22   ar
    29     6     1    1
    30    14     8   ar
    31    21    16   ar
    32     6     7    1
@<TRIPOS>MOLECULE
*****
 29 32 0 0 0
SMALL
GASTEIGER

@<TRIPOS>ATOM
      1 C          62.8093   84.1668   10.7480 C.3     1  UNL1        0.0971
      2 C          62.5157   85.5694   11.1911 C.3     1  UNL1        0.1137
      3 N          62.4812   86.6820   10.1856 N.pl3   1  UNL1       -0.2763
      4 C          62.7405   86.3919    8.7369 C.3     1  UNL1        0.1107
      5 C          63.0341   84.9892    8.2938 C.3     1  UNL1        0.0906
      6 N          63.0686   83.8767    9.2993 N.3     1  UNL1       -0.2923
      7 H          63.9974   83.4588    9.2443 H       1  UNL1        0.1236
      8 C          62.1876   88.0846   10.6287 C.ar    1  UNL1        0.2035
      9 N          63.1827   88.8299   11.4679 N.ar    1  UNL1       -0.2148
     10 C          62.8891   90.2325   11.9111 C.ar    1  UNL1        0.0890
     11 C          61.6002   90.8899   11.5151 C.ar    1  UNL1        0.0800
     12 C          60.6051   90.1446   10.6759 C.ar    1  UNL1        0.2645
     13 O          59.3163   90.8019   10.2798 O.2     1  UNL1       -0.2668
     14 N          60.8988   88.7419   10.2327 N.ar    1  UNL1       -0.2667
     15 C          59.9036   87.9966    9.3935 C.3     1  UNL1        0.1363
     16 C          63.8842   90.9778   12.7503 C.ar    1  UNL1        0.0210
     17 C          64.7647   92.0176   12.1232 C.ar    1  UNL1        0.0222
     18 C          65.7599   92.7629   12.9624 C.ar    1  UNL1        0.0989
     19 N          65.8745   92.4683   14.4287 N.ar    1  UNL1       -0.2423
     20 C          64.9939   91.4284   15.0558 C.ar    1  UNL1        0.0989
     21 C          63.9988   90.6831   14.2166 C.ar    1  UNL1        0.0222
     22 C          62.8440   82.2549   14.2255 C.ar    1  UNL1        0.1385
     23 C          62.9126   80.8292   13.7645 C.ar    1  UNL1        0.0369
     24 C          62.9468   80.5160   12.2980 C.ar    1  UNL1        0.0028
     25 C          62.9123   81.6285   11.2925 C.ar    1  UNL1       -0.0027
     26 C          62.8438   83.0542   11.7535 C.ar    1  UNL1       -0.0033
     27 C          62.8096   83.3674   13.2200 C.ar    1  UNL1        0.0340
     28 C          62.7278   83.9932   16.1529 C.3     1  UNL1        0.2525
     29 O          62.8099   82.5681   15.6921 O.3     1  UNL1       -0.4714
@<TRIPOS>BOND
     1    28    29    1
     2    29    22    1
     3    22    23   ar
     4    23    24   ar
     5    24    25   ar
     6    25    26   ar
     7    26     1    1
     8     1     2    1
     9     2     3    1
    10     3     8    1
    11     8     9   ar
    12     9    10   ar
    13    10    16    1
    14    16    17   ar
    15    17    18   ar
    16    18    19   ar
    17    19    20   ar
    18    20    21   ar
    19    10    11   ar
    20    11    12   ar
    21    12    13    2
    22    12    14   ar
    23    14    15    1
    24     3     4    1
    25     4     5    1
    26     5     6    1
    27    26    27   ar
    28    27    22   ar
    29     6     1    1
    30    14     8   ar
    31    21    16   ar
    32     6     7    1
