@<TRIPOS>MOLECULE
*****
 27 29 0 0 0
SMALL
GASTEIGER

@<TRIPOS>ATOM
      1 C          63.8644   86.3520   13.5948 C.ar    1  UNL1        0.1413
      2 C          64.3268   87.5501   14.3697 C.ar    1  UNL1        0.0539
      3 C          63.9076   88.9261   13.9443 C.ar    1  UNL1        0.0888
      4 N          63.0261   89.1039   12.7438 N.ar    1  UNL1       -0.2098
      5 C          62.5637   87.9058   11.9688 C.ar    1  UNL1        0.2539
      6 N          62.9828   86.5299   12.3943 N.ar    1  UNL1       -0.1947
      7 N          61.6821   88.0836   10.7683 N.ar    1  UNL1       -0.2008
      8 N          60.7628   87.0497   10.1885 N.ar    1  UNL1       -0.1673
      9 C          60.0775   87.6536    8.9987 C.ar    1  UNL1        0.0806
     10 C          59.0730   86.9703    8.1190 C.3     1  UNL1        0.0540
     11 C          60.5733   89.0608    8.8431 C.ar    1  UNL1        0.0313
     12 C          61.5649   89.3265    9.9367 C.ar    1  UNL1        0.0651
     13 C          62.3088   90.6098   10.1596 C.3     1  UNL1        0.0523
     14 C          64.3701   90.1242   14.7193 C.ar    1  UNL1        0.0400
     15 C          63.5641   90.6220   15.8823 C.ar    1  UNL1        0.1006
     16 N          64.0265   91.8200   16.6574 N.ar    1  UNL1       -0.2391
     17 C          65.2949   92.5205   16.2694 C.ar    1  UNL1        0.1356
     18 C          66.1010   92.0227   15.1064 C.ar    1  UNL1        0.1579
     19 C          65.6385   90.8246   14.3314 C.ar    1  UNL1        0.0416
     20 O          67.3694   92.7231   14.7185 O.3     1  UNL1       -0.4699
     21 C          68.1559   93.4763   15.7500 C.3     1  UNL1        0.2525
     22 C          63.3026   84.0716   14.7056 C.2     1  UNL1        0.4066
     23 O          61.9025   84.5430   14.9655 O.2     1  UNL1       -0.2261
     24 N          64.2835   84.9760   14.0203 N.am    1  UNL1       -0.2349
     25 H          65.2024   84.6666   13.8497 H       1  UNL1        0.1596
     26 C          63.6020   81.5459   14.1751 C.3     1  UNL1        0.2574
     27 O          63.7218   82.6956   15.1311 O.3     1  UNL1       -0.4303
@<TRIPOS>BOND
     1    26    27    1
     2    27    22    1
     3    22    23    2
     4    22    24   am
     5    24     1    1
     6     1     2   ar
     7     2     3   ar
     8     3    14    1
     9    14    15   ar
    10    15    16   ar
    11    16    17   ar
    12    17    18   ar
    13    18    20    1
    14    20    21    1
    15    18    19   ar
    16     3     4   ar
    17     4     5   ar
    18     5     7    1
    19     7     8   ar
    20     8     9   ar
    21     9    10    1
    22     9    11   ar
    23    11    12   ar
    24    12    13    1
    25     5     6   ar
    26     6     1   ar
    27    19    14   ar
    28    12     7   ar
    29    24    25    1
@<TRIPOS>MOLECULE
*****
 27 29 0 0 0
SMALL
GASTEIGER

@<TRIPOS>ATOM
      1 C          62.7185   88.5708   11.5317 C.ar    1  UNL1        0.1413
      2 C          63.2737   89.6659   12.3933 C.ar    1  UNL1        0.0539
      3 C          63.9396   89.3313   13.6951 C.ar    1  UNL1        0.0888
      4 N          64.0504   87.9016   14.1352 N.ar    1  UNL1       -0.2098
      5 C          63.4952   86.8065   13.2736 C.ar    1  UNL1        0.2539
      6 N          62.8292   87.1411   11.9718 N.ar    1  UNL1       -0.1947
      7 N          63.6060   85.3768   13.7137 N.ar    1  UNL1       -0.2008
      8 N          63.7093   84.1823   12.8122 N.ar    1  UNL1       -0.1673
      9 C          63.8000   82.9578   13.6738 C.ar    1  UNL1        0.0806
     10 C          63.9175   81.5439   13.1870 C.3     1  UNL1        0.0540
     11 C          63.7527   83.3955   15.1078 C.ar    1  UNL1        0.0313
     12 C          63.6328   84.8905   15.1324 C.ar    1  UNL1        0.0651
     13 C          63.5535   85.7486   16.3602 C.3     1  UNL1        0.0523
     14 C          64.4948   90.4265   14.5567 C.ar    1  UNL1        0.0400
     15 C          63.7573   90.8576   15.7897 C.ar    1  UNL1        0.1006
     16 N          64.3124   91.9527   16.6513 N.ar    1  UNL1       -0.2391
     17 C          65.6052   92.6168   16.2800 C.ar    1  UNL1        0.1356
     18 C          66.3428   92.1857   15.0471 C.ar    1  UNL1        0.1579
     19 C          65.7875   91.0905   14.1854 C.ar    1  UNL1        0.0416
     20 O          67.6355   92.8498   14.6758 O.3     1  UNL1       -0.4699
     21 C          68.5038   93.4494   15.7417 C.3     1  UNL1        0.2525
     22 C          60.5645   88.7746   10.0934 C.2     1  UNL1        0.4066
     23 O          59.7424   88.3092   11.2586 O.2     1  UNL1       -0.2261
     24 N          62.0525   88.9053   10.2299 N.am    1  UNL1       -0.2349
     25 H          62.5921   89.2107    9.4652 H       1  UNL1        0.1596
     26 C          59.4228   88.0101    7.8883 C.3     1  UNL1        0.2574
     27 O          59.8985   89.1091    8.7916 O.3     1  UNL1       -0.4303
@<TRIPOS>BOND
     1    26    27    1
     2    27    22    1
     3    22    23    2
     4    22    24   am
     5    24     1    1
     6     1     2   ar
     7     2     3   ar
     8     3    14    1
     9    14    15   ar
    10    15    16   ar
    11    16    17   ar
    12    17    18   ar
    13    18    20    1
    14    20    21    1
    15    18    19   ar
    16     3     4   ar
    17     4     5   ar
    18     5     7    1
    19     7     8   ar
    20     8     9   ar
    21     9    10    1
    22     9    11   ar
    23    11    12   ar
    24    12    13    1
    25     5     6   ar
    26     6     1   ar
    27    19    14   ar
    28    12     7   ar
    29    24    25    1
@<TRIPOS>MOLECULE
*****
 27 29 0 0 0
SMALL
GASTEIGER

@<TRIPOS>ATOM
      1 C          63.5445   88.7314   12.8847 C.ar    1  UNL1        0.1413
      2 C          62.6906   88.8123   11.6542 C.ar    1  UNL1        0.0539
      3 C          62.0851   87.5666   11.0783 C.ar    1  UNL1        0.0888
      4 N          62.3336   86.2401   11.7329 N.ar    1  UNL1       -0.2098
      5 C          63.1875   86.1592   12.9634 C.ar    1  UNL1        0.2539
      6 N          63.7930   87.4049   13.5393 N.ar    1  UNL1       -0.1947
      7 N          63.4361   84.8326   13.6181 N.ar    1  UNL1       -0.2008
      8 N          63.4101   83.4956   12.9387 N.ar    1  UNL1       -0.1673
      9 C          63.7122   82.4468   13.9677 C.ar    1  UNL1        0.0806
     10 C          63.7882   80.9687   13.7241 C.3     1  UNL1        0.0540
     11 C          63.9248   83.1358   15.2831 C.ar    1  UNL1        0.0313
     12 C          63.7542   84.6103   15.0670 C.ar    1  UNL1        0.0651
     13 C          63.8797   85.6754   16.1157 C.3     1  UNL1        0.0523
     14 C          61.2311   87.6475    9.8477 C.ar    1  UNL1        0.0400
     15 C          60.5568   88.9377    9.4863 C.ar    1  UNL1        0.1006
     16 N          59.7028   89.0186    8.2558 N.ar    1  UNL1       -0.2391
     17 C          59.5232   87.8093    7.3867 C.ar    1  UNL1        0.1356
     18 C          60.1975   86.5191    7.7481 C.ar    1  UNL1        0.1579
     19 C          61.0515   86.4382    8.9787 C.ar    1  UNL1        0.0416
     20 O          60.0179   85.3098    6.8790 O.3     1  UNL1       -0.4699
     21 C          61.2173   84.5567    6.3847 C.3     1  UNL1        0.2525
     22 C          63.6631   90.5087   14.7761 C.2     1  UNL1        0.4066
     23 O          62.5707   89.7947   15.5156 O.2     1  UNL1       -0.2261
     24 N          64.1499   89.9771   13.4607 N.am    1  UNL1       -0.2349
     25 H          64.8669   90.4458   12.9753 H       1  UNL1        0.1596
     26 C          65.7502   91.9742   15.2722 C.3     1  UNL1        0.2574
     27 O          64.2685   91.7544   15.3520 O.3     1  UNL1       -0.4303
@<TRIPOS>BOND
     1    26    27    1
     2    27    22    1
     3    22    23    2
     4    22    24   am
     5    24     1    1
     6     1     2   ar
     7     2     3   ar
     8     3    14    1
     9    14    15   ar
    10    15    16   ar
    11    16    17   ar
    12    17    18   ar
    13    18    20    1
    14    20    21    1
    15    18    19   ar
    16     3     4   ar
    17     4     5   ar
    18     5     7    1
    19     7     8   ar
    20     8     9   ar
    21     9    10    1
    22     9    11   ar
    23    11    12   ar
    24    12    13    1
    25     5     6   ar
    26     6     1   ar
    27    19    14   ar
    28    12     7   ar
    29    24    25    1
@<TRIPOS>MOLECULE
*****
 27 29 0 0 0
SMALL
GASTEIGER

@<TRIPOS>ATOM
      1 C          63.8549   89.1187   13.9832 C.ar    1  UNL1        0.1413
      2 C          64.5915   90.3980   13.7172 C.ar    1  UNL1        0.0539
      3 C          64.4299   91.0966   12.3997 C.ar    1  UNL1        0.0888
      4 N          63.5317   90.5159   11.3481 N.ar    1  UNL1       -0.2098
      5 C          62.7952   89.2365   11.6140 C.ar    1  UNL1        0.2539
      6 N          62.9567   88.5380   12.9315 N.ar    1  UNL1       -0.1947
      7 N          61.8969   88.6557   10.5623 N.ar    1  UNL1       -0.2008
      8 N          62.1627   87.4144    9.7633 N.ar    1  UNL1       -0.1673
      9 C          61.0053   87.2057    8.8323 C.ar    1  UNL1        0.0806
     10 C          60.8554   86.0820    7.8501 C.3     1  UNL1        0.0540
     11 C          60.0242   88.3181    9.0559 C.ar    1  UNL1        0.0313
     12 C          60.5752   89.2143   10.1251 C.ar    1  UNL1        0.0651
     13 C          59.9197   90.4517   10.6627 C.3     1  UNL1        0.0523
     14 C          65.1666   92.3760   12.1338 C.ar    1  UNL1        0.0400
     15 C          65.7527   93.1548   13.2739 C.ar    1  UNL1        0.1006
     16 N          66.4893   94.4341   13.0081 N.ar    1  UNL1       -0.2391
     17 C          66.6399   94.9347   11.6021 C.ar    1  UNL1        0.1356
     18 C          66.0537   94.1558   10.4619 C.ar    1  UNL1        0.1579
     19 C          65.3171   92.8765   10.7278 C.ar    1  UNL1        0.0416
     20 O          66.2042   94.6563    9.0560 O.3     1  UNL1       -0.4699
     21 C          67.5223   95.2004    8.5906 C.3     1  UNL1        0.2525
     22 C          62.9762   88.5838   16.3689 C.2     1  UNL1        0.4066
     23 O          61.7743   89.4459   16.1195 O.2     1  UNL1       -0.2261
     24 N          64.0165   88.4202   15.3007 N.am    1  UNL1       -0.2349
     25 H          64.8053   87.8544   15.4644 H       1  UNL1        0.1596
     26 C          62.6751   86.4672   17.8452 C.3     1  UNL1        0.2574
     27 O          63.1378   87.8852   17.6864 O.3     1  UNL1       -0.4303
@<TRIPOS>BOND
     1    26    27    1
     2    27    22    1
     3    22    23    2
     4    22    24   am
     5    24     1    1
     6     1     2   ar
     7     2     3   ar
     8     3    14    1
     9    14    15   ar
    10    15    16   ar
    11    16    17   ar
    12    17    18   ar
    13    18    20    1
    14    20    21    1
    15    18    19   ar
    16     3     4   ar
    17     4     5   ar
    18     5     7    1
    19     7     8   ar
    20     8     9   ar
    21     9    10    1
    22     9    11   ar
    23    11    12   ar
    24    12    13    1
    25     5     6   ar
    26     6     1   ar
    27    19    14   ar
    28    12     7   ar
    29    24    25    1
@<TRIPOS>MOLECULE
*****
 27 29 0 0 0
SMALL
GASTEIGER

@<TRIPOS>ATOM
      1 C          63.4748   85.8801   13.0512 C.ar    1  UNL1        0.1413
      2 C          62.6083   86.0400   11.8374 C.ar    1  UNL1        0.0539
      3 C          62.2650   87.4115   11.3363 C.ar    1  UNL1        0.0888
      4 N          62.7883   88.6232   12.0491 N.ar    1  UNL1       -0.2098
      5 C          63.6549   88.4633   13.2629 C.ar    1  UNL1        0.2539
      6 N          63.9981   87.0917   13.7640 N.ar    1  UNL1       -0.1947
      7 N          64.1782   89.6749   13.9758 N.ar    1  UNL1       -0.2008
      8 N          65.0780   90.7224   13.3899 N.ar    1  UNL1       -0.1673
      9 C          65.3495   91.7467   14.4516 C.ar    1  UNL1        0.0806
     10 C          66.2031   92.9705   14.2983 C.3     1  UNL1        0.0540
     11 C          64.6176   91.3322   15.6936 C.ar    1  UNL1        0.0313
     12 C          63.8937   90.0518   15.3995 C.ar    1  UNL1        0.0651
     13 C          63.0359   89.2832   16.3604 C.3     1  UNL1        0.0523
     14 C          61.3984   87.5714   10.1224 C.ar    1  UNL1        0.0400
     15 C          60.7498   88.8925    9.8327 C.ar    1  UNL1        0.1006
     16 N          59.8832   89.0524    8.6188 N.ar    1  UNL1       -0.2391
     17 C          59.6653   87.8912    7.6946 C.ar    1  UNL1        0.1356
     18 C          60.3139   86.5701    7.9843 C.ar    1  UNL1        0.1579
     19 C          61.1805   86.4102    9.1983 C.ar    1  UNL1        0.0416
     20 O          60.0960   85.4089    7.0602 O.3     1  UNL1       -0.4699
     21 C          61.2719   84.6600    6.5067 C.3     1  UNL1        0.2525
     22 C          62.9576   83.8525   14.5911 C.2     1  UNL1        0.4066
     23 O          61.7538   84.5679   15.1288 O.2     1  UNL1       -0.2261
     24 N          63.8181   84.5086   13.5523 N.am    1  UNL1       -0.2349
     25 H          64.6081   84.0390   13.1994 H       1  UNL1        0.1596
     26 C          63.1365   81.2912   14.1934 C.3     1  UNL1        0.2574
     27 O          63.3008   82.4809   15.0922 O.3     1  UNL1       -0.4303
@<TRIPOS>BOND
     1    26    27    1
     2    27    22    1
     3    22    23    2
     4    22    24   am
     5    24     1    1
     6     1     2   ar
     7     2     3   ar
     8     3    14    1
     9    14    15   ar
    10    15    16   ar
    11    16    17   ar
    12    17    18   ar
    13    18    20    1
    14    20    21    1
    15    18    19   ar
    16     3     4   ar
    17     4     5   ar
    18     5     7    1
    19     7     8   ar
    20     8     9   ar
    21     9    10    1
    22     9    11   ar
    23    11    12   ar
    24    12    13    1
    25     5     6   ar
    26     6     1   ar
    27    19    14   ar
    28    12     7   ar
    29    24    25    1
@<TRIPOS>MOLECULE
*****
 27 29 0 0 0
SMALL
GASTEIGER

@<TRIPOS>ATOM
      1 C          61.3505   89.2897   10.3882 C.ar    1  UNL1        0.1413
      2 C          62.2121   90.2597   11.1410 C.ar    1  UNL1        0.0539
      3 C          63.1986   89.7576   12.1532 C.ar    1  UNL1        0.0888
      4 N          63.3236   88.2855   12.4126 N.ar    1  UNL1       -0.2098
      5 C          62.4620   87.3156   11.6598 C.ar    1  UNL1        0.2539
      6 N          61.4755   87.8177   10.6476 N.ar    1  UNL1       -0.1947
      7 N          62.5870   85.8434   11.9192 N.ar    1  UNL1       -0.2008
      8 N          62.5061   85.1743   13.2593 N.ar    1  UNL1       -0.1673
      9 C          62.6839   83.6993   13.0524 C.ar    1  UNL1        0.0806
     10 C          62.6729   82.6509   14.1251 C.3     1  UNL1        0.0540
     11 C          62.8746   83.4568   11.5844 C.ar    1  UNL1        0.0313
     12 C          62.8147   84.7820   10.8841 C.ar    1  UNL1        0.0651
     13 C          62.9574   85.0062    9.4079 C.3     1  UNL1        0.0523
     14 C          64.0602   90.7277   12.9061 C.ar    1  UNL1        0.0400
     15 C          64.0123   90.7669   14.4048 C.ar    1  UNL1        0.1006
     16 N          64.8738   91.7368   15.1577 N.ar    1  UNL1       -0.2391
     17 C          65.7834   92.6677   14.4118 C.ar    1  UNL1        0.1356
     18 C          65.8313   92.6285   12.9131 C.ar    1  UNL1        0.1579
     19 C          64.9697   91.6585   12.1602 C.ar    1  UNL1        0.0416
     20 O          66.7408   93.5593   12.1672 O.3     1  UNL1       -0.4699
     21 C          66.2039   94.8422   11.6052 C.3     1  UNL1        0.2525
     22 C          59.9322   88.9053    8.2457 C.2     1  UNL1        0.4066
     23 O          60.4869   87.5166    8.1276 O.2     1  UNL1       -0.2261
     24 N          60.3640   89.7918    9.3759 N.am    1  UNL1       -0.2349
     25 H          59.9999   90.7033    9.4534 H       1  UNL1        0.1596
     26 C          59.4296   89.9771    5.9329 C.3     1  UNL1        0.2574
     27 O          58.9456   89.4074    7.2334 O.3     1  UNL1       -0.4303
@<TRIPOS>BOND
     1    26    27    1
     2    27    22    1
     3    22    23    2
     4    22    24   am
     5    24     1    1
     6     1     2   ar
     7     2     3   ar
     8     3    14    1
     9    14    15   ar
    10    15    16   ar
    11    16    17   ar
    12    17    18   ar
    13    18    20    1
    14    20    21    1
    15    18    19   ar
    16     3     4   ar
    17     4     5   ar
    18     5     7    1
    19     7     8   ar
    20     8     9   ar
    21     9    10    1
    22     9    11   ar
    23    11    12   ar
    24    12    13    1
    25     5     6   ar
    26     6     1   ar
    27    19    14   ar
    28    12     7   ar
    29    24    25    1
@<TRIPOS>MOLECULE
*****
 27 29 0 0 0
SMALL
GASTEIGER

@<TRIPOS>ATOM
      1 C          62.4375   88.0986   11.0432 C.ar    1  UNL1        0.1413
      2 C          62.5389   86.6910   11.5514 C.ar    1  UNL1        0.0539
      3 C          63.2251   86.4122   12.8558 C.ar    1  UNL1        0.0888
      4 N          63.8098   87.5410   13.6520 N.ar    1  UNL1       -0.2098
      5 C          63.7083   88.9486   13.1438 C.ar    1  UNL1        0.2539
      6 N          63.0221   89.2274   11.8394 N.ar    1  UNL1       -0.1947
      7 N          64.2930   90.0774   13.9400 N.ar    1  UNL1       -0.2008
      8 N          65.2521   91.1119   13.4301 N.ar    1  UNL1       -0.1673
      9 C          65.5732   92.0438   14.5608 C.ar    1  UNL1        0.0806
     10 C          66.4933   93.2265   14.4944 C.3     1  UNL1        0.0540
     11 C          64.8124   91.5853   15.7696 C.ar    1  UNL1        0.0313
     12 C          64.0212   90.3700   15.3859 C.ar    1  UNL1        0.0651
     13 C          63.1171   89.5852   16.2895 C.3     1  UNL1        0.0523
     14 C          63.3266   85.0045   13.3640 C.ar    1  UNL1        0.0400
     15 C          63.7950   84.7449   14.7651 C.ar    1  UNL1        0.1006
     16 N          63.8965   83.3373   15.2733 N.ar    1  UNL1       -0.2391
     17 C          63.5295   82.1892   14.3804 C.ar    1  UNL1        0.1356
     18 C          63.0611   82.4488   12.9793 C.ar    1  UNL1        0.1579
     19 C          62.9596   83.8565   12.4711 C.ar    1  UNL1        0.0416
     20 O          62.6941   81.3008   12.0863 O.3     1  UNL1       -0.4699
     21 C          62.5418   79.9233   12.6601 C.3     1  UNL1        0.2525
     22 C          60.4229   89.0740    9.7241 C.2     1  UNL1        0.4066
     23 O          59.7806   89.4917   11.0137 O.2     1  UNL1       -0.2261
     24 N          61.7513   88.3775    9.7389 N.am    1  UNL1       -0.2349
     25 H          62.1728   88.1033    8.8925 H       1  UNL1        0.1596
     26 C          59.2622   88.2159    7.5638 C.3     1  UNL1        0.2574
     27 O          59.7368   89.3528    8.4197 O.3     1  UNL1       -0.4303
@<TRIPOS>BOND
     1    26    27    1
     2    27    22    1
     3    22    23    2
     4    22    24   am
     5    24     1    1
     6     1     2   ar
     7     2     3   ar
     8     3    14    1
     9    14    15   ar
    10    15    16   ar
    11    16    17   ar
    12    17    18   ar
    13    18    20    1
    14    20    21    1
    15    18    19   ar
    16     3     4   ar
    17     4     5   ar
    18     5     7    1
    19     7     8   ar
    20     8     9   ar
    21     9    10    1
    22     9    11   ar
    23    11    12   ar
    24    12    13    1
    25     5     6   ar
    26     6     1   ar
    27    19    14   ar
    28    12     7   ar
    29    24    25    1
@<TRIPOS>MOLECULE
*****
 27 29 0 0 0
SMALL
GASTEIGER

@<TRIPOS>ATOM
      1 C          61.3024   87.7584   10.9742 C.ar    1  UNL1        0.1413
      2 C          62.0839   88.9969   11.2985 C.ar    1  UNL1        0.0539
      3 C          63.2221   88.9317   12.2733 C.ar    1  UNL1        0.0888
      4 N          63.5787   87.6280   12.9239 N.ar    1  UNL1       -0.2098
      5 C          62.7971   86.3895   12.5996 C.ar    1  UNL1        0.2539
      6 N          61.6590   86.4547   11.6247 N.ar    1  UNL1       -0.1947
      7 N          63.1537   85.0858   13.2501 N.ar    1  UNL1       -0.2008
      8 N          62.9073   83.7200   12.6810 N.ar    1  UNL1       -0.1673
      9 C          63.4205   82.7090   13.6631 C.ar    1  UNL1        0.0806
     10 C          63.3777   81.2188   13.4981 C.3     1  UNL1        0.0540
     11 C          63.9843   83.4501   14.8392 C.ar    1  UNL1        0.0313
     12 C          63.8193   84.9190   14.5839 C.ar    1  UNL1        0.0651
     13 C          64.2453   86.0265   15.5015 C.3     1  UNL1        0.0523
     14 C          64.0036   90.1703   12.5977 C.ar    1  UNL1        0.0400
     15 C          64.1118   91.2747   11.5883 C.ar    1  UNL1        0.1006
     16 N          64.8933   92.5132   11.9126 N.ar    1  UNL1       -0.2391
     17 C          65.5667   92.6475   13.2462 C.ar    1  UNL1        0.1356
     18 C          65.4586   91.5431   14.2555 C.ar    1  UNL1        0.1579
     19 C          64.6770   90.3045   13.9312 C.ar    1  UNL1        0.0416
     20 O          66.1320   91.6773   15.5891 O.3     1  UNL1       -0.4699
     21 C          66.9858   92.8756   15.8809 C.3     1  UNL1        0.2525
     22 C          60.2558   87.0976    8.6899 C.2     1  UNL1        0.4066
     23 O          61.4855   86.3064    8.3553 O.2     1  UNL1       -0.2261
     24 N          60.1642   87.8235    9.9993 N.am    1  UNL1       -0.2349
     25 H          59.3571   88.3427   10.2189 H       1  UNL1        0.1596
     26 C          58.7866   88.4576    7.0340 C.3     1  UNL1        0.2574
     27 O          59.1176   87.1627    7.7150 O.3     1  UNL1       -0.4303
@<TRIPOS>BOND
     1    26    27    1
     2    27    22    1
     3    22    23    2
     4    22    24   am
     5    24     1    1
     6     1     2   ar
     7     2     3   ar
     8     3    14    1
     9    14    15   ar
    10    15    16   ar
    11    16    17   ar
    12    17    18   ar
    13    18    20    1
    14    20    21    1
    15    18    19   ar
    16     3     4   ar
    17     4     5   ar
    18     5     7    1
    19     7     8   ar
    20     8     9   ar
    21     9    10    1
    22     9    11   ar
    23    11    12   ar
    24    12    13    1
    25     5     6   ar
    26     6     1   ar
    27    19    14   ar
    28    12     7   ar
    29    24    25    1
@<TRIPOS>MOLECULE
*****
 27 29 0 0 0
SMALL
GASTEIGER

@<TRIPOS>ATOM
      1 C          63.1203   85.6200   12.4735 C.ar    1  UNL1        0.1413
      2 C          62.2592   85.7031   11.2481 C.ar    1  UNL1        0.0539
      3 C          61.8462   87.0413   10.7110 C.ar    1  UNL1        0.0888
      4 N          62.2942   88.2965   11.3993 N.ar    1  UNL1       -0.2098
      5 C          63.1553   88.2134   12.6247 C.ar    1  UNL1        0.2539
      6 N          63.5683   86.8752   13.1618 N.ar    1  UNL1       -0.1947
      7 N          63.6034   89.4686   13.3130 N.ar    1  UNL1       -0.2008
      8 N          63.8233   89.6352   14.7875 N.ar    1  UNL1       -0.1673
      9 C          64.2660   91.0471   15.0335 C.ar    1  UNL1        0.0806
     10 C          64.5970   91.6475   16.3676 C.3     1  UNL1        0.0540
     11 C          64.3197   91.7531   13.7111 C.ar    1  UNL1        0.0313
     12 C          63.9102   90.7776   12.6478 C.ar    1  UNL1        0.0651
     13 C          63.8228   91.0612   11.1775 C.3     1  UNL1        0.0523
     14 C          60.9850   87.1244    9.4856 C.ar    1  UNL1        0.0400
     15 C          60.6058   85.8738    8.7493 C.ar    1  UNL1        0.1006
     16 N          59.7447   85.9567    7.5239 N.ar    1  UNL1       -0.2391
     17 C          59.2628   87.2904    7.0348 C.ar    1  UNL1        0.1356
     18 C          59.6421   88.5410    7.7711 C.ar    1  UNL1        0.1579
     19 C          60.5032   88.4580    8.9965 C.ar    1  UNL1        0.0416
     20 O          59.1602   89.8746    7.2820 O.3     1  UNL1       -0.4699
     21 C          59.0814   90.1497    5.8095 C.3     1  UNL1        0.2525
     22 C          62.9170   83.7579   14.2738 C.2     1  UNL1        0.4066
     23 O          61.8877   84.5723   15.0000 O.2     1  UNL1       -0.2261
     24 N          63.5333   84.2817   13.0106 N.am    1  UNL1       -0.2349
     25 H          64.2089   83.7472   12.5340 H       1  UNL1        0.1596
     26 C          63.5173   81.2616   13.8761 C.3     1  UNL1        0.2574
     27 O          63.3301   82.4196   14.8109 O.3     1  UNL1       -0.4303
@<TRIPOS>BOND
     1    26    27    1
     2    27    22    1
     3    22    23    2
     4    22    24   am
     5    24     1    1
     6     1     2   ar
     7     2     3   ar
     8     3    14    1
     9    14    15   ar
    10    15    16   ar
    11    16    17   ar
    12    17    18   ar
    13    18    20    1
    14    20    21    1
    15    18    19   ar
    16     3     4   ar
    17     4     5   ar
    18     5     7    1
    19     7     8   ar
    20     8     9   ar
    21     9    10    1
    22     9    11   ar
    23    11    12   ar
    24    12    13    1
    25     5     6   ar
    26     6     1   ar
    27    19    14   ar
    28    12     7   ar
    29    24    25    1
