@<TRIPOS>MOLECULE
*****
 36 39 0 0 0
SMALL
GASTEIGER

@<TRIPOS>ATOM
      1 C          63.4358   87.8337   12.7103 C.3     1  UNL1        0.0341
      2 C          62.5421   87.4237   11.5774 C.ar    1  UNL1        0.0141
      3 C          62.2282   85.9737   11.3568 C.ar    1  UNL1        0.1277
      4 N          61.3345   85.5636   10.2241 N.ar    1  UNL1       -0.2310
      5 C          60.7547   86.6037    9.3119 C.ar    1  UNL1        0.0828
      6 C          59.8610   86.1937    8.1791 C.ar    1  UNL1        0.0197
      7 C          59.2812   87.2338    7.2670 C.ar    1  UNL1        0.0082
      8 C          59.5952   88.6839    7.4876 C.ar    1  UNL1        0.0347
      9 BR         59.0153   89.7240    6.5753 Br      1  UNL1       -0.0490
     10 C          60.4888   89.0939    8.6203 C.ar    1  UNL1        0.0083
     11 C          61.0686   88.0538    9.5325 C.ar    1  UNL1        0.0223
     12 C          61.9623   88.4638   10.6653 C.ar    1  UNL1        0.0535
     13 N          62.8080   84.9335   12.2691 N.pl3   1  UNL1       -0.2935
     14 C          62.3912   84.8825   13.7090 C.3     1  UNL1        0.0921
     15 C          62.9710   83.8424   14.6212 C.3     1  UNL1        0.0215
     16 C          63.9676   82.8534   14.0933 C.3     1  UNL1        0.0035
     17 C          64.3844   82.9045   12.6533 C.3     1  UNL1        0.0215
     18 C          63.8046   83.9446   11.7412 C.3     1  UNL1        0.0921
     19 C          62.2762   89.9139   10.8859 C.2     1  UNL1        0.2457
     20 O          61.2825   90.7997   11.5771 O.2     1  UNL1       -0.2702
     21 N          63.5840   90.4782   10.4153 N.am    1  UNL1       -0.3005
     22 H          64.2363   89.8968    9.9617 H       1  UNL1        0.1497
     23 C          63.8979   91.9283   10.6359 C.3     1  UNL1        0.0940
     24 C          65.1812   92.3247   11.3038 C.3     1  UNL1        0.0431
     25 C          66.3193   92.8578   10.4850 C.ar    1  UNL1       -0.0103
     26 C          67.3905   91.9290    9.9953 C.ar    1  UNL1       -0.0034
     27 C          68.5287   92.4621    9.1765 C.ar    1  UNL1       -0.0003
     28 C          68.5956   93.9240    8.8474 C.ar    1  UNL1        0.0008
     29 C          67.5243   94.8528    9.3370 C.ar    1  UNL1        0.0111
     30 C          66.3862   94.3198   10.1558 C.ar    1  UNL1        0.0537
     31 CL         65.3150   95.2486   10.6455 Cl      1  UNL1       -0.0826
     32 C          65.3263   92.1881   12.7905 C.3     1  UNL1        0.0120
     33 C          66.4577   92.8715   13.4996 C.3     1  UNL1        0.0421
     34 C          67.6495   92.0789   13.9485 C.2     1  UNL1        0.0503
     35 O          67.6828   91.4907   15.3279 O.co2   1  UNL1       -0.5492
     36 O          68.8080   91.8744   13.0178 O.co2   1  UNL1       -0.5492
@<TRIPOS>UNITY_ATOM_ATTR
35 1
charge -1
@<TRIPOS>BOND
     1     1     2    1
     2     2     3   ar
     3     3    13    1
     4    13    14    1
     5    14    15    1
     6    15    16    1
     7    16    17    1
     8    17    18    1
     9     3     4   ar
    10     4     5   ar
    11     5     6   ar
    12     6     7   ar
    13     7     8   ar
    14     8     9    1
    15     8    10   ar
    16    10    11   ar
    17    11    12   ar
    18    12    19    1
    19    19    20    2
    20    19    21   am
    21    21    23    1
    22    23    24    1
    23    24    32    1
    24    32    33    1
    25    33    34    1
    26    34    35   ar
    27    34    36   ar
    28    24    25    1
    29    25    26   ar
    30    26    27   ar
    31    27    28   ar
    32    28    29   ar
    33    29    30   ar
    34    30    31    1
    35    12     2   ar
    36    30    25   ar
    37    18    13    1
    38    11     5   ar
    39    21    22    1
@<TRIPOS>MOLECULE
*****
 36 39 0 0 0
SMALL
GASTEIGER

@<TRIPOS>ATOM
      1 C          63.3339   87.4398   12.7102 C.3     1  UNL1        0.0341
      2 C          62.4889   87.1114   11.5151 C.ar    1  UNL1        0.0141
      3 C          62.2443   85.6798   11.1402 C.ar    1  UNL1        0.1277
      4 N          61.3993   85.3513    9.9451 N.ar    1  UNL1       -0.2310
      5 C          60.7989   86.4545    9.1250 C.ar    1  UNL1        0.0828
      6 C          59.9540   86.1261    7.9300 C.ar    1  UNL1        0.0197
      7 C          59.3537   87.2293    7.1099 C.ar    1  UNL1        0.0082
      8 C          59.5983   88.6609    7.4849 C.ar    1  UNL1        0.0347
      9 BR         58.9979   89.7641    6.6647 Br      1  UNL1       -0.0490
     10 C          60.4433   88.9893    8.6799 C.ar    1  UNL1        0.0083
     11 C          61.0436   87.8862    9.4999 C.ar    1  UNL1        0.0223
     12 C          61.8886   88.2146   10.6950 C.ar    1  UNL1        0.0535
     13 N          62.8447   84.5765   11.9603 N.pl3   1  UNL1       -0.2935
     14 C          62.5114   84.4591   13.4181 C.3     1  UNL1        0.0921
     15 C          63.1118   83.3560   14.2381 C.3     1  UNL1        0.0215
     16 C          64.0454   82.3702   13.6004 C.3     1  UNL1        0.0035
     17 C          64.3786   82.4876   12.1426 C.3     1  UNL1        0.0215
     18 C          63.7783   83.5908   11.3226 C.3     1  UNL1        0.0921
     19 C          62.1332   89.6462   11.0700 C.2     1  UNL1        0.2457
     20 O          61.1047   90.4012   11.8587 O.2     1  UNL1       -0.2702
     21 N          63.4065   90.3228   10.6562 N.am    1  UNL1       -0.3005
     22 H          64.0815   89.8273   10.1385 H       1  UNL1        0.1497
     23 C          63.6511   91.7545   11.0311 C.3     1  UNL1        0.0940
     24 C          65.0497   92.2362   11.2796 C.3     1  UNL1        0.0431
     25 C          65.5599   92.3657   12.6842 C.ar    1  UNL1       -0.0103
     26 C          65.4278   91.2164   13.6391 C.ar    1  UNL1       -0.0034
     27 C          65.9380   91.3459   15.0437 C.ar    1  UNL1       -0.0003
     28 C          66.5803   92.6246   15.4935 C.ar    1  UNL1        0.0008
     29 C          66.7123   93.7739   14.5386 C.ar    1  UNL1        0.0111
     30 C          66.2022   93.6444   13.1340 C.ar    1  UNL1        0.0537
     31 CL         66.3343   94.7937   12.1792 Cl      1  UNL1       -0.0826
     32 C          65.9381   92.5885   10.1235 C.3     1  UNL1        0.0120
     33 C          67.3711   92.1453   10.1166 C.3     1  UNL1        0.0421
     34 C          68.3639   92.8309    9.2253 C.2     1  UNL1        0.0503
     35 O          68.7056   94.2735    9.4533 O.co2   1  UNL1       -0.5492
     36 O          69.0150   92.0737    8.1060 O.co2   1  UNL1       -0.5492
@<TRIPOS>UNITY_ATOM_ATTR
35 1
charge -1
@<TRIPOS>BOND
     1     1     2    1
     2     2     3   ar
     3     3    13    1
     4    13    14    1
     5    14    15    1
     6    15    16    1
     7    16    17    1
     8    17    18    1
     9     3     4   ar
    10     4     5   ar
    11     5     6   ar
    12     6     7   ar
    13     7     8   ar
    14     8     9    1
    15     8    10   ar
    16    10    11   ar
    17    11    12   ar
    18    12    19    1
    19    19    20    2
    20    19    21   am
    21    21    23    1
    22    23    24    1
    23    24    32    1
    24    32    33    1
    25    33    34    1
    26    34    35   ar
    27    34    36   ar
    28    24    25    1
    29    25    26   ar
    30    26    27   ar
    31    27    28   ar
    32    28    29   ar
    33    29    30   ar
    34    30    31    1
    35    12     2   ar
    36    30    25   ar
    37    18    13    1
    38    11     5   ar
    39    21    22    1
@<TRIPOS>MOLECULE
*****
 36 39 0 0 0
SMALL
GASTEIGER

@<TRIPOS>ATOM
      1 C          63.4421   87.8935   12.7608 C.3     1  UNL1        0.0341
      2 C          62.5664   87.4644   11.6209 C.ar    1  UNL1        0.0141
      3 C          62.2843   86.0080   11.3990 C.ar    1  UNL1        0.1277
      4 N          61.4086   85.5789   10.2592 N.ar    1  UNL1       -0.2310
      5 C          60.8151   86.6062    9.3413 C.ar    1  UNL1        0.0828
      6 C          59.9395   86.1771    8.2016 C.ar    1  UNL1        0.0197
      7 C          59.3461   87.2044    7.2837 C.ar    1  UNL1        0.0082
      8 C          59.6282   88.6608    7.5057 C.ar    1  UNL1        0.0347
      9 BR         59.0347   89.6882    6.5878 Br      1  UNL1       -0.0490
     10 C          60.5039   89.0899    8.6455 C.ar    1  UNL1        0.0083
     11 C          61.0973   88.0626    9.5633 C.ar    1  UNL1        0.0223
     12 C          61.9730   88.4917   10.7031 C.ar    1  UNL1        0.0535
     13 N          62.8778   84.9807   12.3169 N.pl3   1  UNL1       -0.2935
     14 C          62.4569   84.9279   13.7556 C.3     1  UNL1        0.0921
     15 C          63.0503   83.9006   14.6734 C.3     1  UNL1        0.0215
     16 C          64.0647   82.9261   14.1525 C.3     1  UNL1        0.0035
     17 C          64.4857   82.9789   12.7137 C.3     1  UNL1        0.0215
     18 C          63.8922   84.0062   11.7959 C.3     1  UNL1        0.0921
     19 C          62.2551   89.9481   10.9251 C.2     1  UNL1        0.2457
     20 O          61.2155   90.8258   11.5565 O.2     1  UNL1       -0.2702
     21 N          63.5771   90.5269   10.5156 N.am    1  UNL1       -0.3005
     22 H          64.2595   89.9508   10.1011 H       1  UNL1        0.1497
     23 C          63.8592   91.9833   10.7375 C.3     1  UNL1        0.0940
     24 C          65.1821   92.4140   11.2984 C.3     1  UNL1        0.0431
     25 C          65.9937   93.4570   10.5889 C.ar    1  UNL1       -0.0103
     26 C          65.5271   94.8824   10.5650 C.ar    1  UNL1       -0.0034
     27 C          66.3388   95.9254    9.8555 C.ar    1  UNL1       -0.0003
     28 C          67.6170   95.5430    9.1700 C.ar    1  UNL1        0.0008
     29 C          68.0835   94.1176    9.1939 C.ar    1  UNL1        0.0111
     30 C          67.2719   93.0746    9.9033 C.ar    1  UNL1        0.0537
     31 CL         67.7385   91.6492    9.9273 Cl      1  UNL1       -0.0826
     32 C          65.6933   91.8016   12.5687 C.3     1  UNL1        0.0120
     33 C          64.7553   91.0600   13.4743 C.3     1  UNL1        0.0421
     34 C          64.5919   91.4923   14.9014 C.2     1  UNL1        0.0503
     35 O          65.5538   92.4738   15.5025 O.co2   1  UNL1       -0.5492
     36 O          63.4667   90.9429   15.7273 O.co2   1  UNL1       -0.5492
@<TRIPOS>UNITY_ATOM_ATTR
35 1
charge -1
@<TRIPOS>BOND
     1     1     2    1
     2     2     3   ar
     3     3    13    1
     4    13    14    1
     5    14    15    1
     6    15    16    1
     7    16    17    1
     8    17    18    1
     9     3     4   ar
    10     4     5   ar
    11     5     6   ar
    12     6     7   ar
    13     7     8   ar
    14     8     9    1
    15     8    10   ar
    16    10    11   ar
    17    11    12   ar
    18    12    19    1
    19    19    20    2
    20    19    21   am
    21    21    23    1
    22    23    24    1
    23    24    32    1
    24    32    33    1
    25    33    34    1
    26    34    35   ar
    27    34    36   ar
    28    24    25    1
    29    25    26   ar
    30    26    27   ar
    31    27    28   ar
    32    28    29   ar
    33    29    30   ar
    34    30    31    1
    35    12     2   ar
    36    30    25   ar
    37    18    13    1
    38    11     5   ar
    39    21    22    1
@<TRIPOS>MOLECULE
*****
 36 39 0 0 0
SMALL
GASTEIGER

@<TRIPOS>ATOM
      1 C          63.7719   91.6707    9.7403 C.3     1  UNL1        0.0341
      2 C          64.1616   91.7010   11.1885 C.ar    1  UNL1        0.0141
      3 C          65.2614   92.6105   11.6504 C.ar    1  UNL1        0.1277
      4 N          65.6511   92.6408   13.0985 N.ar    1  UNL1       -0.2310
      5 C          64.9409   91.7616   14.0849 C.ar    1  UNL1        0.0828
      6 C          65.3306   91.7919   15.5330 C.ar    1  UNL1        0.0197
      7 C          64.6205   90.9127   16.5193 C.ar    1  UNL1        0.0082
      8 C          63.5208   90.0033   16.0574 C.ar    1  UNL1        0.0347
      9 BR         62.8107   89.1241   17.0438 Br      1  UNL1       -0.0490
     10 C          63.1311   89.9730   14.6093 C.ar    1  UNL1        0.0083
     11 C          63.8412   90.8521   13.6230 C.ar    1  UNL1        0.0223
     12 C          63.4515   90.8219   12.1748 C.ar    1  UNL1        0.0535
     13 N          65.9715   93.4897   10.6640 N.pl3   1  UNL1       -0.2935
     14 C          65.5113   94.9012   10.4503 C.3     1  UNL1        0.0921
     15 C          66.2214   95.7803    9.4640 C.3     1  UNL1        0.0215
     16 C          67.3917   95.2479    8.6914 C.3     1  UNL1        0.0035
     17 C          67.8518   93.8364    8.9051 C.3     1  UNL1        0.0215
     18 C          67.1417   92.9573    9.8914 C.3     1  UNL1        0.0921
     19 C          62.3517   89.9124   11.7129 C.2     1  UNL1        0.2457
     20 O          61.0828   90.4905   11.1601 O.2     1  UNL1       -0.2702
     21 N          62.5209   88.4247   11.8038 N.am    1  UNL1       -0.3005
     22 H          63.3537   88.0452   12.1666 H       1  UNL1        0.1497
     23 C          61.4211   87.5152   11.3420 C.3     1  UNL1        0.0940
     24 C          61.6963   86.4773   10.2946 C.3     1  UNL1        0.0431
     25 C          62.5071   85.2628   10.6372 C.ar    1  UNL1       -0.0103
     26 C          62.5722   84.7801   12.0559 C.ar    1  UNL1       -0.0034
     27 C          63.3831   83.5655   12.3984 C.ar    1  UNL1       -0.0003
     28 C          64.1289   82.8337   11.3222 C.ar    1  UNL1        0.0008
     29 C          64.0639   83.3164    9.9035 C.ar    1  UNL1        0.0111
     30 C          63.2530   84.5309    9.5610 C.ar    1  UNL1        0.0537
     31 CL         63.1879   85.0136    8.1422 Cl      1  UNL1       -0.0826
     32 C          61.1606   86.6539    8.9047 C.3     1  UNL1        0.0120
     33 C          60.5511   87.9623    8.4965 C.3     1  UNL1        0.0421
     34 C          59.3083   87.9811    7.6568 C.2     1  UNL1        0.0503
     35 O          58.3339   86.8434    7.7337 O.co2   1  UNL1       -0.5492
     36 O          59.0399   89.1379    6.7402 O.co2   1  UNL1       -0.5492
@<TRIPOS>UNITY_ATOM_ATTR
35 1
charge -1
@<TRIPOS>BOND
     1     1     2    1
     2     2     3   ar
     3     3    13    1
     4    13    14    1
     5    14    15    1
     6    15    16    1
     7    16    17    1
     8    17    18    1
     9     3     4   ar
    10     4     5   ar
    11     5     6   ar
    12     6     7   ar
    13     7     8   ar
    14     8     9    1
    15     8    10   ar
    16    10    11   ar
    17    11    12   ar
    18    12    19    1
    19    19    20    2
    20    19    21   am
    21    21    23    1
    22    23    24    1
    23    24    32    1
    24    32    33    1
    25    33    34    1
    26    34    35   ar
    27    34    36   ar
    28    24    25    1
    29    25    26   ar
    30    26    27   ar
    31    27    28   ar
    32    28    29   ar
    33    29    30   ar
    34    30    31    1
    35    12     2   ar
    36    30    25   ar
    37    18    13    1
    38    11     5   ar
    39    21    22    1
@<TRIPOS>MOLECULE
*****
 36 39 0 0 0
SMALL
GASTEIGER

@<TRIPOS>ATOM
      1 C          61.6806   90.3619   10.6075 C.3     1  UNL1        0.0341
      2 C          62.0215   88.9827   11.0889 C.ar    1  UNL1        0.0141
      3 C          61.4617   87.7827   10.3843 C.ar    1  UNL1        0.1277
      4 N          61.8025   86.4035   10.8656 N.ar    1  UNL1       -0.2310
      5 C          62.7032   86.2243   12.0516 C.ar    1  UNL1        0.0828
      6 C          63.0441   84.8452   12.5330 C.ar    1  UNL1        0.0197
      7 C          63.9447   84.6660   13.7190 C.ar    1  UNL1        0.0082
      8 C          64.5046   85.8660   14.4236 C.ar    1  UNL1        0.0347
      9 BR         65.4053   85.6868   15.6097 Br      1  UNL1       -0.0490
     10 C          64.1637   87.2452   13.9423 C.ar    1  UNL1        0.0083
     11 C          63.2631   87.4243   12.7563 C.ar    1  UNL1        0.0223
     12 C          62.9222   88.8035   12.2749 C.ar    1  UNL1        0.0535
     13 N          60.5609   87.9619    9.1982 N.pl3   1  UNL1       -0.2935
     14 C          59.8310   86.7831    8.6259 C.3     1  UNL1        0.0921
     15 C          58.9303   86.9623    7.4399 C.3     1  UNL1        0.0215
     16 C          58.7596   88.3204    6.8262 C.3     1  UNL1        0.0035
     17 C          59.4896   89.4991    7.3985 C.3     1  UNL1        0.0215
     18 C          60.3903   89.3199    8.5845 C.3     1  UNL1        0.0921
     19 C          63.4820   90.0035   12.9796 C.2     1  UNL1        0.2457
     20 O          63.0204   90.3422   14.3660 O.2     1  UNL1       -0.2702
     21 N          64.5035   90.8649   12.2978 N.am    1  UNL1       -0.3005
     22 H          64.8065   90.6425   11.3878 H       1  UNL1        0.1497
     23 C          65.0634   92.0649   13.0025 C.3     1  UNL1        0.0940
     24 C          66.4436   92.5515   12.6737 C.3     1  UNL1        0.0431
     25 C          66.6393   93.5870   11.6063 C.ar    1  UNL1       -0.0103
     26 C          66.1561   94.9901   11.8250 C.ar    1  UNL1       -0.0034
     27 C          66.3518   96.0256   10.7575 C.ar    1  UNL1       -0.0003
     28 C          67.0307   95.6580    9.4714 C.ar    1  UNL1        0.0008
     29 C          67.5139   94.2549    9.2528 C.ar    1  UNL1        0.0111
     30 C          67.3182   93.2194   10.3202 C.ar    1  UNL1        0.0537
     31 CL         67.8014   91.8163   10.1016 Cl      1  UNL1       -0.0826
     32 C          67.6281   92.0026   13.4124 C.3     1  UNL1        0.0120
     33 C          67.5275   91.7114   14.8804 C.3     1  UNL1        0.0421
     34 C          67.1906   92.8122   15.8420 C.2     1  UNL1        0.0503
     35 O          65.9342   92.7369   16.6579 O.co2   1  UNL1       -0.5492
     36 O          68.1101   93.9884   15.9876 O.co2   1  UNL1       -0.5492
@<TRIPOS>UNITY_ATOM_ATTR
35 1
charge -1
@<TRIPOS>BOND
     1     1     2    1
     2     2     3   ar
     3     3    13    1
     4    13    14    1
     5    14    15    1
     6    15    16    1
     7    16    17    1
     8    17    18    1
     9     3     4   ar
    10     4     5   ar
    11     5     6   ar
    12     6     7   ar
    13     7     8   ar
    14     8     9    1
    15     8    10   ar
    16    10    11   ar
    17    11    12   ar
    18    12    19    1
    19    19    20    2
    20    19    21   am
    21    21    23    1
    22    23    24    1
    23    24    32    1
    24    32    33    1
    25    33    34    1
    26    34    35   ar
    27    34    36   ar
    28    24    25    1
    29    25    26   ar
    30    26    27   ar
    31    27    28   ar
    32    28    29   ar
    33    29    30   ar
    34    30    31    1
    35    12     2   ar
    36    30    25   ar
    37    18    13    1
    38    11     5   ar
    39    21    22    1
@<TRIPOS>MOLECULE
*****
 36 39 0 0 0
SMALL
GASTEIGER

@<TRIPOS>ATOM
      1 C          64.6773   87.9609   14.6439 C.3     1  UNL1        0.0341
      2 C          63.8792   88.5459   13.5166 C.ar    1  UNL1        0.0141
      3 C          63.8125   90.0337   13.3379 C.ar    1  UNL1        0.1277
      4 N          63.0144   90.6187   12.2107 N.ar    1  UNL1       -0.2310
      5 C          62.2830   89.7159   11.2619 C.ar    1  UNL1        0.0828
      6 C          61.4849   90.3009   10.1346 C.ar    1  UNL1        0.0197
      7 C          60.7536   89.3981    9.1860 C.ar    1  UNL1        0.0082
      8 C          60.8203   87.9102    9.3646 C.ar    1  UNL1        0.0347
      9 BR         60.0889   87.0074    8.4159 Br      1  UNL1       -0.0490
     10 C          61.6184   87.3252   10.4919 C.ar    1  UNL1        0.0083
     11 C          62.3497   88.2281   11.4406 C.ar    1  UNL1        0.0223
     12 C          63.1478   87.6431   12.5679 C.ar    1  UNL1        0.0535
     13 N          64.5439   90.9365   14.2867 N.pl3   1  UNL1       -0.2935
     14 C          65.8180   91.6015   13.8574 C.3     1  UNL1        0.0921
     15 C          66.5494   92.5042   14.8061 C.3     1  UNL1        0.0215
     16 C          66.0065   92.7421   16.1841 C.3     1  UNL1        0.0035
     17 C          64.7324   92.0772   16.6133 C.3     1  UNL1        0.0215
     18 C          64.0010   91.1744   15.6646 C.3     1  UNL1        0.0921
     19 C          63.2145   86.1552   12.7466 C.2     1  UNL1        0.2457
     20 O          62.0946   85.2893   12.2506 O.2     1  UNL1       -0.2702
     21 N          64.4012   85.5333   13.4212 N.am    1  UNL1       -0.3005
     22 H          65.1362   86.1016   13.7467 H       1  UNL1        0.1497
     23 C          64.4679   84.0455   13.5998 C.3     1  UNL1        0.0940
     24 C          63.2049   83.2372   13.6370 C.3     1  UNL1        0.0431
     25 C          63.0663   82.0221   12.7686 C.ar    1  UNL1       -0.0103
     26 C          62.5998   80.7256   13.3615 C.ar    1  UNL1       -0.0034
     27 C          62.4613   79.5105   12.4930 C.ar    1  UNL1       -0.0003
     28 C          62.7892   79.5918   11.0316 C.ar    1  UNL1        0.0008
     29 C          63.2557   80.8882   10.4386 C.ar    1  UNL1        0.0111
     30 C          63.3943   82.1033   11.3071 C.ar    1  UNL1        0.0537
     31 CL         63.8607   83.3998   10.7141 Cl      1  UNL1       -0.0826
     32 C          62.0805   83.6440   14.5426 C.3     1  UNL1        0.0120
     33 C          62.3394   83.8776   16.0015 C.3     1  UNL1        0.0421
     34 C          62.4832   85.2766   16.5231 C.2     1  UNL1        0.0503
     35 O          63.8454   85.8893   16.6611 O.co2   1  UNL1       -0.5492
     36 O          61.2648   86.0629   16.9068 O.co2   1  UNL1       -0.5492
@<TRIPOS>UNITY_ATOM_ATTR
35 1
charge -1
@<TRIPOS>BOND
     1     1     2    1
     2     2     3   ar
     3     3    13    1
     4    13    14    1
     5    14    15    1
     6    15    16    1
     7    16    17    1
     8    17    18    1
     9     3     4   ar
    10     4     5   ar
    11     5     6   ar
    12     6     7   ar
    13     7     8   ar
    14     8     9    1
    15     8    10   ar
    16    10    11   ar
    17    11    12   ar
    18    12    19    1
    19    19    20    2
    20    19    21   am
    21    21    23    1
    22    23    24    1
    23    24    32    1
    24    32    33    1
    25    33    34    1
    26    34    35   ar
    27    34    36   ar
    28    24    25    1
    29    25    26   ar
    30    26    27   ar
    31    27    28   ar
    32    28    29   ar
    33    29    30   ar
    34    30    31    1
    35    12     2   ar
    36    30    25   ar
    37    18    13    1
    38    11     5   ar
    39    21    22    1
@<TRIPOS>MOLECULE
*****
 36 39 0 0 0
SMALL
GASTEIGER

@<TRIPOS>ATOM
      1 C          61.9875   89.2907   11.1890 C.3     1  UNL1        0.0341
      2 C          62.1518   87.8080   11.3460 C.ar    1  UNL1        0.0141
      3 C          61.4912   86.8734   10.3764 C.ar    1  UNL1        0.1277
      4 N          61.6553   85.3907   10.5334 N.ar    1  UNL1       -0.2310
      5 C          62.4802   84.8425   11.6601 C.ar    1  UNL1        0.0828
      6 C          62.6443   83.3599   11.8171 C.ar    1  UNL1        0.0197
      7 C          63.4691   82.8118   12.9437 C.ar    1  UNL1        0.0082
      8 C          64.1297   83.7464   13.9133 C.ar    1  UNL1        0.0347
      9 BR         64.9545   83.1983   15.0400 Br      1  UNL1       -0.0490
     10 C          63.9655   85.2291   13.7563 C.ar    1  UNL1        0.0083
     11 C          63.1408   85.7771   12.6297 C.ar    1  UNL1        0.0223
     12 C          62.9765   87.2599   12.4727 C.ar    1  UNL1        0.0535
     13 N          60.6663   87.4215    9.2498 N.pl3   1  UNL1       -0.2935
     14 C          60.6625   88.8954    8.9711 C.3     1  UNL1        0.0921
     15 C          59.8377   89.4434    7.8445 C.3     1  UNL1        0.0215
     16 C          59.0168   88.5176    6.9965 C.3     1  UNL1        0.0035
     17 C          59.0207   87.0438    7.2752 C.3     1  UNL1        0.0215
     18 C          59.8454   86.4957    8.4018 C.3     1  UNL1        0.0921
     19 C          63.6371   88.1945   13.4423 C.2     1  UNL1        0.2457
     20 O          63.9978   87.7165   14.8175 O.2     1  UNL1       -0.2702
     21 N          63.9371   89.6071   13.0366 N.am    1  UNL1       -0.3005
     22 H          63.7003   89.9209   12.1339 H       1  UNL1        0.1497
     23 C          64.5976   90.5417   14.0062 C.3     1  UNL1        0.0940
     24 C          65.5187   91.6143   13.5051 C.3     1  UNL1        0.0431
     25 C          66.7312   91.9943   14.3022 C.ar    1  UNL1       -0.0103
     26 C          68.0941   91.9083   13.6816 C.ar    1  UNL1       -0.0034
     27 C          69.3065   92.2883   14.4789 C.ar    1  UNL1       -0.0003
     28 C          69.1561   92.7544   15.8967 C.ar    1  UNL1        0.0008
     29 C          67.7932   92.8404   16.5173 C.ar    1  UNL1        0.0111
     30 C          66.5808   92.4604   15.7201 C.ar    1  UNL1        0.0537
     31 CL         65.2179   92.5464   16.3407 Cl      1  UNL1       -0.0826
     32 C          65.2274   92.3068   12.2068 C.3     1  UNL1        0.0120
     33 C          65.8224   93.6547   11.9257 C.3     1  UNL1        0.0421
     34 C          66.7639   93.8331   10.7717 C.2     1  UNL1        0.0503
     35 O          67.2039   92.6430    9.9719 O.co2   1  UNL1       -0.5492
     36 O          67.2654   95.2018   10.4176 O.co2   1  UNL1       -0.5492
@<TRIPOS>UNITY_ATOM_ATTR
35 1
charge -1
@<TRIPOS>BOND
     1     1     2    1
     2     2     3   ar
     3     3    13    1
     4    13    14    1
     5    14    15    1
     6    15    16    1
     7    16    17    1
     8    17    18    1
     9     3     4   ar
    10     4     5   ar
    11     5     6   ar
    12     6     7   ar
    13     7     8   ar
    14     8     9    1
    15     8    10   ar
    16    10    11   ar
    17    11    12   ar
    18    12    19    1
    19    19    20    2
    20    19    21   am
    21    21    23    1
    22    23    24    1
    23    24    32    1
    24    32    33    1
    25    33    34    1
    26    34    35   ar
    27    34    36   ar
    28    24    25    1
    29    25    26   ar
    30    26    27   ar
    31    27    28   ar
    32    28    29   ar
    33    29    30   ar
    34    30    31    1
    35    12     2   ar
    36    30    25   ar
    37    18    13    1
    38    11     5   ar
    39    21    22    1
@<TRIPOS>MOLECULE
*****
 36 39 0 0 0
SMALL
GASTEIGER

@<TRIPOS>ATOM
      1 C          61.6932   86.5495   11.4047 C.3     1  UNL1        0.0341
      2 C          62.2667   87.9333   11.3238 C.ar    1  UNL1        0.0141
      3 C          61.8830   88.8391   10.1914 C.ar    1  UNL1        0.1277
      4 N          62.4563   90.2228   10.1105 N.ar    1  UNL1       -0.2310
      5 C          63.4134   90.7008   11.1621 C.ar    1  UNL1        0.0828
      6 C          63.9868   92.0845   11.0812 C.ar    1  UNL1        0.0197
      7 C          64.9438   92.5623   12.1326 C.ar    1  UNL1        0.0082
      8 C          65.3275   91.6565   13.2650 C.ar    1  UNL1        0.0347
      9 BR         66.2846   92.1345   14.3166 Br      1  UNL1       -0.0490
     10 C          64.7541   90.2728   13.3459 C.ar    1  UNL1        0.0083
     11 C          63.7971   89.7949   12.2944 C.ar    1  UNL1        0.0223
     12 C          63.2237   88.4112   12.3753 C.ar    1  UNL1        0.0535
     13 N          60.9259   88.3612    9.1399 N.pl3   1  UNL1       -0.2935
     14 C          60.8144   86.8963    8.8373 C.3     1  UNL1        0.0921
     15 C          59.8574   86.4184    7.7858 C.3     1  UNL1        0.0215
     16 C          59.0118   87.4054    7.0369 C.3     1  UNL1        0.0035
     17 C          59.1233   88.8703    7.3396 C.3     1  UNL1        0.0215
     18 C          60.0803   89.3482    8.3910 C.3     1  UNL1        0.0921
     19 C          63.6073   87.5054   13.5077 C.2     1  UNL1        0.2457
     20 O          63.7002   88.0473   14.9032 O.2     1  UNL1       -0.2702
     21 N          63.8982   86.0575   13.2444 N.am    1  UNL1       -0.3005
     22 H          63.8372   85.7018   12.3285 H       1  UNL1        0.1497
     23 C          64.2818   85.1517   14.3768 C.3     1  UNL1        0.0940
     24 C          63.2877   84.1693   14.9213 C.3     1  UNL1        0.0431
     25 C          63.0025   82.8995   14.1755 C.ar    1  UNL1       -0.0103
     26 C          61.8421   82.0381   14.5774 C.ar    1  UNL1       -0.0034
     27 C          61.5569   80.7682   13.8315 C.ar    1  UNL1       -0.0003
     28 C          62.4321   80.3599   12.6838 C.ar    1  UNL1        0.0008
     29 C          63.5925   81.2213   12.2819 C.ar    1  UNL1        0.0111
     30 C          63.8777   82.4911   13.0277 C.ar    1  UNL1        0.0537
     31 CL         65.0380   83.3525   12.6258 Cl      1  UNL1       -0.0826
     32 C          62.5787   84.4566   16.2116 C.3     1  UNL1        0.0120
     33 C          63.1665   85.4303   17.1895 C.3     1  UNL1        0.0421
     34 C          62.3136   86.5212   17.7663 C.2     1  UNL1        0.0503
     35 O          62.7197   87.1946   19.0436 O.co2   1  UNL1       -0.5492
     36 O          61.0546   86.9386   17.0657 O.co2   1  UNL1       -0.5492
@<TRIPOS>UNITY_ATOM_ATTR
35 1
charge -1
@<TRIPOS>BOND
     1     1     2    1
     2     2     3   ar
     3     3    13    1
     4    13    14    1
     5    14    15    1
     6    15    16    1
     7    16    17    1
     8    17    18    1
     9     3     4   ar
    10     4     5   ar
    11     5     6   ar
    12     6     7   ar
    13     7     8   ar
    14     8     9    1
    15     8    10   ar
    16    10    11   ar
    17    11    12   ar
    18    12    19    1
    19    19    20    2
    20    19    21   am
    21    21    23    1
    22    23    24    1
    23    24    32    1
    24    32    33    1
    25    33    34    1
    26    34    35   ar
    27    34    36   ar
    28    24    25    1
    29    25    26   ar
    30    26    27   ar
    31    27    28   ar
    32    28    29   ar
    33    29    30   ar
    34    30    31    1
    35    12     2   ar
    36    30    25   ar
    37    18    13    1
    38    11     5   ar
    39    21    22    1
