@<TRIPOS>MOLECULE
*****
 32 35 0 0 0
SMALL
GASTEIGER

@<TRIPOS>ATOM
      1 N          65.7681   92.9415   11.5462 N.pl3   1  UNL1       -0.2872
      2 N          62.2251   90.1838   11.2420 N.3     1  UNL1       -0.2689
      3 C          62.6906   90.9429   10.0348 C.3     1  UNL1        0.0741
      4 C          63.8716   91.8621   10.1362 C.3     1  UNL1        0.0375
      5 C          64.5871   92.0223   11.4448 C.3     1  UNL1        0.0800
      6 C          64.1217   91.2633   12.6519 C.3     1  UNL1        0.0375
      7 C          62.9406   90.3440   12.5506 C.3     1  UNL1        0.0741
      8 C          61.0441   89.2646   11.1406 C.3     1  UNL1        0.0992
      9 C          60.8623   86.1884    7.8613 C.ar    1  UNL1        0.1387
     10 C          61.9742   86.1475    8.8672 C.ar    1  UNL1        0.0366
     11 C          62.0348   87.1729    9.9603 C.ar    1  UNL1        0.0002
     12 C          60.9835   88.2392   10.0475 C.ar    1  UNL1       -0.0059
     13 C          59.8716   88.2802    9.0416 C.ar    1  UNL1        0.0002
     14 C          59.8110   87.2548    7.9484 C.ar    1  UNL1        0.0366
     15 C          62.0620   84.5142    6.2777 C.3     1  UNL1        0.2525
     16 O          60.8016   85.1630    6.7681 O.3     1  UNL1       -0.4714
     17 C          66.6668   92.8786   12.7455 C.ar    1  UNL1        0.0515
     18 C          66.4453   93.8121   13.8985 C.ar    1  UNL1        0.0148
     19 C          67.3440   93.7492   15.0978 C.ar    1  UNL1        0.0051
     20 C          68.4642   92.7526   15.1441 C.ar    1  UNL1        0.0715
     21 C          68.6856   91.8190   13.9911 C.ar    1  UNL1        0.0051
     22 C          67.7869   91.8820   12.7918 C.ar    1  UNL1        0.0148
     23 C          69.3628   92.6896   16.3434 C.3     1  UNL1        0.4186
     24 F          70.2615   92.6266   17.5428 F       1  UNL1       -0.1659
     25 F          69.8655   94.0697   16.0393 F       1  UNL1       -0.1659
     26 F          68.8602   91.3095   16.6476 F       1  UNL1       -0.1659
     27 C          66.0504   93.9238   10.4482 C.ar    1  UNL1        0.0710
     28 C          67.0510   93.5895    9.3818 C.ar    1  UNL1        0.0180
     29 C          67.3333   94.5717    8.2838 C.ar    1  UNL1        0.0220
     30 C          66.6150   95.8882    8.2522 C.ar    1  UNL1        0.0990
     31 N          65.6144   96.2225    9.3186 N.ar    1  UNL1       -0.2410
     32 C          65.3321   95.2403   10.4166 C.ar    1  UNL1        0.1136
@<TRIPOS>BOND
     1    15    16    1
     2    16     9    1
     3     9    10   ar
     4    10    11   ar
     5    11    12   ar
     6    12     8    1
     7     8     2    1
     8     2     3    1
     9     3     4    1
    10     4     5    1
    11     5     1    1
    12     1    17    1
    13    17    18   ar
    14    18    19   ar
    15    19    20   ar
    16    20    23    1
    17    23    24    1
    18    23    25    1
    19    23    26    1
    20    20    21   ar
    21    21    22   ar
    22     1    27    1
    23    27    28   ar
    24    28    29   ar
    25    29    30   ar
    26    30    31   ar
    27    31    32   ar
    28     5     6    1
    29     6     7    1
    30    12    13   ar
    31    13    14   ar
    32    14     9   ar
    33     7     2    1
    34    22    17   ar
    35    32    27   ar
@<TRIPOS>MOLECULE
*****
 32 35 0 0 0
SMALL
GASTEIGER

@<TRIPOS>ATOM
      1 N          62.0792   86.9197   10.8743 N.pl3   1  UNL1       -0.2872
      2 N          63.9971   90.7639   12.2137 N.3     1  UNL1       -0.2689
      3 C          63.3336   90.6848   10.8707 C.3     1  UNL1        0.0741
      4 C          62.6943   89.4035   10.4243 C.3     1  UNL1        0.0375
      5 C          62.7185   88.2011   11.3208 C.3     1  UNL1        0.0800
      6 C          63.3820   88.2801   12.6637 C.3     1  UNL1        0.0375
      7 C          64.0213   89.5615   13.1102 C.3     1  UNL1        0.0741
      8 C          64.6364   92.0452   12.6602 C.3     1  UNL1        0.0992
      9 C          67.2115   94.3879    9.8086 C.ar    1  UNL1        0.1387
     10 C          67.3064   92.8915    9.8485 C.ar    1  UNL1        0.0366
     11 C          66.4481   92.1106   10.7990 C.ar    1  UNL1        0.0002
     12 C          65.4948   92.8261   11.7096 C.ar    1  UNL1       -0.0059
     13 C          65.3998   94.3226   11.6697 C.ar    1  UNL1        0.0002
     14 C          66.2582   95.1034   10.7192 C.ar    1  UNL1        0.0366
     15 C          67.5320   96.4087    8.2075 C.3     1  UNL1        0.2525
     16 O          68.0698   95.1688    8.8581 O.3     1  UNL1       -0.4714
     17 C          62.4785   85.6210   11.5098 C.ar    1  UNL1        0.0515
     18 C          63.0830   84.5318   10.6743 C.ar    1  UNL1        0.0148
     19 C          63.4824   83.2331   11.3099 C.ar    1  UNL1        0.0051
     20 C          63.2772   83.0236   12.7810 C.ar    1  UNL1        0.0715
     21 C          62.6727   84.1129   13.6165 C.ar    1  UNL1        0.0051
     22 C          62.2733   85.4116   12.9809 C.ar    1  UNL1        0.0148
     23 C          63.6766   81.7250   13.4165 C.3     1  UNL1        0.4186
     24 F          64.0760   80.4263   14.0521 F       1  UNL1       -0.1659
     25 F          64.1332   82.4639   14.6394 F       1  UNL1       -0.1659
     26 F          63.2200   80.9861   12.1936 F       1  UNL1       -0.1659
     27 C          61.0405   86.9370    9.7923 C.ar    1  UNL1        0.0710
     28 C          61.2291   86.1056    8.5582 C.ar    1  UNL1        0.0180
     29 C          60.1904   86.1229    7.4761 C.ar    1  UNL1        0.0220
     30 C          58.9631   86.9717    7.6282 C.ar    1  UNL1        0.0990
     31 N          58.7744   87.8032    8.8624 N.ar    1  UNL1       -0.2410
     32 C          59.8131   87.7858    9.9444 C.ar    1  UNL1        0.1136
@<TRIPOS>BOND
     1    15    16    1
     2    16     9    1
     3     9    10   ar
     4    10    11   ar
     5    11    12   ar
     6    12     8    1
     7     8     2    1
     8     2     3    1
     9     3     4    1
    10     4     5    1
    11     5     1    1
    12     1    17    1
    13    17    18   ar
    14    18    19   ar
    15    19    20   ar
    16    20    23    1
    17    23    24    1
    18    23    25    1
    19    23    26    1
    20    20    21   ar
    21    21    22   ar
    22     1    27    1
    23    27    28   ar
    24    28    29   ar
    25    29    30   ar
    26    30    31   ar
    27    31    32   ar
    28     5     6    1
    29     6     7    1
    30    12    13   ar
    31    13    14   ar
    32    14     9   ar
    33     7     2    1
    34    22    17   ar
    35    32    27   ar
@<TRIPOS>MOLECULE
*****
 32 35 0 0 0
SMALL
GASTEIGER

@<TRIPOS>ATOM
      1 N          62.0362   86.7565   10.7044 N.pl3   1  UNL1       -0.2872
      2 N          63.6885   90.7350   12.0052 N.3     1  UNL1       -0.2689
      3 C          63.7715   89.5519   12.9236 C.3     1  UNL1        0.0741
      4 C          63.2207   88.2258   12.4900 C.3     1  UNL1        0.0375
      5 C          62.5869   88.0827   11.1380 C.3     1  UNL1        0.0800
      6 C          62.5040   89.2658   10.2196 C.3     1  UNL1        0.0375
      7 C          63.0548   90.5920   10.6532 C.3     1  UNL1        0.0741
      8 C          64.2393   92.0611   12.4387 C.3     1  UNL1        0.0992
      9 C          67.8722   92.2308   15.0888 C.ar    1  UNL1        0.1387
     10 C          66.5007   92.3187   15.6898 C.ar    1  UNL1        0.0366
     11 C          65.2897   92.2621   14.8065 C.ar    1  UNL1        0.0002
     12 C          65.4503   92.1177   13.3221 C.ar    1  UNL1       -0.0059
     13 C          66.8217   92.0299   12.7211 C.ar    1  UNL1        0.0002
     14 C          68.0327   92.0865   13.6045 C.ar    1  UNL1        0.0366
     15 C          69.7615   93.5998   16.2319 C.3     1  UNL1        0.2525
     16 O          69.0832   92.2874   15.9722 O.3     1  UNL1       -0.4714
     17 C          62.4754   85.4998   11.3956 C.ar    1  UNL1        0.0515
     18 C          63.1937   84.4319   10.6250 C.ar    1  UNL1        0.0148
     19 C          63.6330   83.1753   11.3162 C.ar    1  UNL1        0.0051
     20 C          63.3540   82.9864   12.7779 C.ar    1  UNL1        0.0715
     21 C          62.6357   84.0543   13.5484 C.ar    1  UNL1        0.0051
     22 C          62.1964   85.3110   12.8572 C.ar    1  UNL1        0.0148
     23 C          63.7932   81.7297   13.4690 C.3     1  UNL1        0.4186
     24 F          64.2325   80.4730   14.1602 F       1  UNL1       -0.1659
     25 F          63.4192   80.9315   12.2554 F       1  UNL1       -0.1659
     26 F          64.1672   82.5279   14.6827 F       1  UNL1       -0.1659
     27 C          61.0461   86.6871    9.5797 C.ar    1  UNL1        0.0710
     28 C          61.3631   85.8894    8.3496 C.ar    1  UNL1        0.0180
     29 C          60.3731   85.8200    7.2249 C.ar    1  UNL1        0.0220
     30 C          59.0660   86.5483    7.3303 C.ar    1  UNL1        0.0990
     31 N          58.7489   87.3460    8.5604 N.ar    1  UNL1       -0.2410
     32 C          59.7390   87.4154    9.6851 C.ar    1  UNL1        0.1136
@<TRIPOS>BOND
     1    15    16    1
     2    16     9    1
     3     9    10   ar
     4    10    11   ar
     5    11    12   ar
     6    12     8    1
     7     8     2    1
     8     2     3    1
     9     3     4    1
    10     4     5    1
    11     5     1    1
    12     1    17    1
    13    17    18   ar
    14    18    19   ar
    15    19    20   ar
    16    20    23    1
    17    23    24    1
    18    23    25    1
    19    23    26    1
    20    20    21   ar
    21    21    22   ar
    22     1    27    1
    23    27    28   ar
    24    28    29   ar
    25    29    30   ar
    26    30    31   ar
    27    31    32   ar
    28     5     6    1
    29     6     7    1
    30    12    13   ar
    31    13    14   ar
    32    14     9   ar
    33     7     2    1
    34    22    17   ar
    35    32    27   ar
@<TRIPOS>MOLECULE
*****
 32 35 0 0 0
SMALL
GASTEIGER

@<TRIPOS>ATOM
      1 N          62.7346   85.4610   11.9066 N.pl3   1  UNL1       -0.2872
      2 N          63.7864   89.5508   13.4618 N.3     1  UNL1       -0.2689
      3 C          64.2641   88.3271   14.1861 C.3     1  UNL1        0.0741
      4 C          63.9135   86.9640   13.6677 C.3     1  UNL1        0.0375
      5 C          63.0852   86.8243   12.4250 C.3     1  UNL1        0.0800
      6 C          62.6075   88.0479   11.7007 C.3     1  UNL1        0.0375
      7 C          62.9581   89.4111   12.2190 C.3     1  UNL1        0.0741
      8 C          64.1370   90.9139   13.9802 C.3     1  UNL1        0.0992
      9 C          66.4700   93.7703   11.4017 C.ar    1  UNL1        0.1387
     10 C          65.4658   92.8465   10.7787 C.ar    1  UNL1        0.0366
     11 C          64.6881   91.8944   11.6382 C.ar    1  UNL1        0.0002
     12 C          64.9147   91.8660   13.1207 C.ar    1  UNL1       -0.0059
     13 C          65.9189   92.7898   13.7437 C.ar    1  UNL1        0.0002
     14 C          66.6966   93.7419   12.8842 C.ar    1  UNL1        0.0366
     15 C          67.7629   94.2768    9.2059 C.3     1  UNL1        0.2525
     16 O          67.2477   94.7224   10.5422 O.3     1  UNL1       -0.4714
     17 C          62.5050   85.2529   10.4390 C.ar    1  UNL1        0.0515
     18 C          63.5063   84.4892    9.6241 C.ar    1  UNL1        0.0148
     19 C          63.2767   84.2811    8.1565 C.ar    1  UNL1        0.0051
     20 C          62.0457   84.8367    7.5037 C.ar    1  UNL1        0.0715
     21 C          61.0444   85.6004    8.3186 C.ar    1  UNL1        0.0051
     22 C          61.2740   85.8085    9.7863 C.ar    1  UNL1        0.0148
     23 C          61.8161   84.6285    6.0361 C.3     1  UNL1        0.4186
     24 F          61.5865   84.4204    4.5685 F       1  UNL1       -0.1659
     25 F          60.3338   84.6579    6.2638 F       1  UNL1       -0.1659
     26 F          63.2984   84.5991    5.8084 F       1  UNL1       -0.1659
     27 C          62.6136   84.3060   12.8559 C.ar    1  UNL1        0.0710
     28 C          62.5663   82.9029   12.3277 C.ar    1  UNL1        0.0180
     29 C          62.4453   81.7478   13.2770 C.ar    1  UNL1        0.0220
     30 C          62.3716   81.9958   14.7545 C.ar    1  UNL1        0.0990
     31 N          62.4190   83.3990   15.2827 N.ar    1  UNL1       -0.2410
     32 C          62.5400   84.5540   14.3334 C.ar    1  UNL1        0.1136
@<TRIPOS>BOND
     1    15    16    1
     2    16     9    1
     3     9    10   ar
     4    10    11   ar
     5    11    12   ar
     6    12     8    1
     7     8     2    1
     8     2     3    1
     9     3     4    1
    10     4     5    1
    11     5     1    1
    12     1    17    1
    13    17    18   ar
    14    18    19   ar
    15    19    20   ar
    16    20    23    1
    17    23    24    1
    18    23    25    1
    19    23    26    1
    20    20    21   ar
    21    21    22   ar
    22     1    27    1
    23    27    28   ar
    24    28    29   ar
    25    29    30   ar
    26    30    31   ar
    27    31    32   ar
    28     5     6    1
    29     6     7    1
    30    12    13   ar
    31    13    14   ar
    32    14     9   ar
    33     7     2    1
    34    22    17   ar
    35    32    27   ar
@<TRIPOS>MOLECULE
*****
 32 35 0 0 0
SMALL
GASTEIGER

@<TRIPOS>ATOM
      1 N          62.4098   86.9327   11.1778 N.pl3   1  UNL1       -0.2872
      2 N          59.5236   88.2614    7.9910 N.3     1  UNL1       -0.2689
      3 C          60.0632   89.2557    8.9761 C.3     1  UNL1        0.0741
      4 C          61.0252   88.8128   10.0383 C.3     1  UNL1        0.0375
      5 C          61.4477   87.3756   10.1155 C.3     1  UNL1        0.0800
      6 C          60.9082   86.3813    9.1305 C.3     1  UNL1        0.0375
      7 C          59.9461   86.8242    8.0682 C.3     1  UNL1        0.0741
      8 C          58.5616   88.7043    6.9288 C.3     1  UNL1        0.0992
      9 C          59.5676   92.2201    4.3064 C.ar    1  UNL1        0.1387
     10 C          58.1448   91.9673    4.7086 C.ar    1  UNL1        0.0366
     11 C          57.8095   90.7954    5.5828 C.ar    1  UNL1        0.0002
     12 C          58.8969   89.8763    6.0547 C.ar    1  UNL1       -0.0059
     13 C          60.3196   90.1291    5.6524 C.ar    1  UNL1        0.0002
     14 C          60.6550   91.3010    4.7783 C.ar    1  UNL1        0.0366
     15 C          59.8592   93.2511    1.9395 C.3     1  UNL1        0.2525
     16 O          59.9029   93.3921    3.4322 O.3     1  UNL1       -0.4714
     17 C          63.0466   87.9456   12.0824 C.ar    1  UNL1        0.0515
     18 C          63.6716   87.5095   13.3744 C.ar    1  UNL1        0.0148
     19 C          64.3084   88.5224   14.2790 C.ar    1  UNL1        0.0051
     20 C          64.3202   89.9715   13.8918 C.ar    1  UNL1        0.0715
     21 C          63.6952   90.4077   12.5998 C.ar    1  UNL1        0.0051
     22 C          63.0584   89.3947   11.6951 C.ar    1  UNL1        0.0148
     23 C          64.9570   90.9844   14.7964 C.3     1  UNL1        0.4186
     24 F          65.5938   91.9973   15.7011 F       1  UNL1       -0.1659
     25 F          63.9774   90.6350   15.8772 F       1  UNL1       -0.1659
     26 F          65.9366   91.3338   13.7156 F       1  UNL1       -0.1659
     27 C          62.7350   85.4769   11.3353 C.ar    1  UNL1        0.0710
     28 C          63.4187   84.7366   10.2242 C.ar    1  UNL1        0.0180
     29 C          63.7439   83.2808   10.3818 C.ar    1  UNL1        0.0220
     30 C          63.3854   82.5652   11.6504 C.ar    1  UNL1        0.0990
     31 N          62.7016   83.3055   12.7615 N.ar    1  UNL1       -0.2410
     32 C          62.3764   84.7613   12.6040 C.ar    1  UNL1        0.1136
@<TRIPOS>BOND
     1    15    16    1
     2    16     9    1
     3     9    10   ar
     4    10    11   ar
     5    11    12   ar
     6    12     8    1
     7     8     2    1
     8     2     3    1
     9     3     4    1
    10     4     5    1
    11     5     1    1
    12     1    17    1
    13    17    18   ar
    14    18    19   ar
    15    19    20   ar
    16    20    23    1
    17    23    24    1
    18    23    25    1
    19    23    26    1
    20    20    21   ar
    21    21    22   ar
    22     1    27    1
    23    27    28   ar
    24    28    29   ar
    25    29    30   ar
    26    30    31   ar
    27    31    32   ar
    28     5     6    1
    29     6     7    1
    30    12    13   ar
    31    13    14   ar
    32    14     9   ar
    33     7     2    1
    34    22    17   ar
    35    32    27   ar
@<TRIPOS>MOLECULE
*****
 32 35 0 0 0
SMALL
GASTEIGER

@<TRIPOS>ATOM
      1 N          63.3086   89.1803   12.7101 N.pl3   1  UNL1       -0.2872
      2 N          63.8900   84.9266   14.0586 N.3     1  UNL1       -0.2689
      3 C          63.1313   85.2166   12.7975 C.3     1  UNL1        0.0741
      4 C          62.9375   86.6344   12.3480 C.3     1  UNL1        0.0375
      5 C          63.5024   87.7624   13.1596 C.3     1  UNL1        0.0800
      6 C          64.2611   87.4724   14.4207 C.3     1  UNL1        0.0375
      7 C          64.4549   86.0545   14.8702 C.3     1  UNL1        0.0741
      8 C          64.0838   83.5087   14.5081 C.3     1  UNL1        0.0992
      9 C          62.8705   80.1103   11.8195 C.ar    1  UNL1        0.1387
     10 C          63.7036   81.2341   11.2783 C.ar    1  UNL1        0.0366
     11 C          64.1080   82.3669   12.1745 C.ar    1  UNL1        0.0002
     12 C          63.6794   82.3759   13.6119 C.ar    1  UNL1       -0.0059
     13 C          62.8463   81.2521   14.1531 C.ar    1  UNL1        0.0002
     14 C          62.4419   80.1193   13.2569 C.ar    1  UNL1        0.0366
     15 C          62.8937   78.9691    9.4856 C.3     1  UNL1        0.2525
     16 O          62.4661   78.9774   10.9233 O.3     1  UNL1       -0.4714
     17 C          64.2253   90.2574   13.2095 C.ar    1  UNL1        0.0515
     18 C          64.7667   90.1932   14.6069 C.ar    1  UNL1        0.0148
     19 C          65.6834   91.2703   15.1063 C.ar    1  UNL1        0.0051
     20 C          66.0588   92.4116   14.2083 C.ar    1  UNL1        0.0715
     21 C          65.5175   92.4758   12.8108 C.ar    1  UNL1        0.0051
     22 C          64.6007   91.3986   12.3115 C.ar    1  UNL1        0.0148
     23 C          66.9756   93.4887   14.7077 C.3     1  UNL1        0.4186
     24 F          67.8923   94.5658   15.2071 F       1  UNL1       -0.1659
     25 F          67.4885   92.5604   15.7684 F       1  UNL1       -0.1659
     26 F          66.4627   94.4170   13.6470 F       1  UNL1       -0.1659
     27 C          62.1980   89.5210   11.7611 C.ar    1  UNL1        0.0710
     28 C          62.3724   89.2917   10.2891 C.ar    1  UNL1        0.0180
     29 C          61.2618   89.6324    9.3402 C.ar    1  UNL1        0.0220
     30 C          59.9768   90.2026    9.8633 C.ar    1  UNL1        0.0990
     31 N          59.8024   90.4320   11.3354 N.ar    1  UNL1       -0.2410
     32 C          60.9130   90.0912   12.2843 C.ar    1  UNL1        0.1136
@<TRIPOS>BOND
     1    15    16    1
     2    16     9    1
     3     9    10   ar
     4    10    11   ar
     5    11    12   ar
     6    12     8    1
     7     8     2    1
     8     2     3    1
     9     3     4    1
    10     4     5    1
    11     5     1    1
    12     1    17    1
    13    17    18   ar
    14    18    19   ar
    15    19    20   ar
    16    20    23    1
    17    23    24    1
    18    23    25    1
    19    23    26    1
    20    20    21   ar
    21    21    22   ar
    22     1    27    1
    23    27    28   ar
    24    28    29   ar
    25    29    30   ar
    26    30    31   ar
    27    31    32   ar
    28     5     6    1
    29     6     7    1
    30    12    13   ar
    31    13    14   ar
    32    14     9   ar
    33     7     2    1
    34    22    17   ar
    35    32    27   ar
@<TRIPOS>MOLECULE
*****
 32 35 0 0 0
SMALL
GASTEIGER

@<TRIPOS>ATOM
      1 N          62.9422   85.4800   11.9183 N.pl3   1  UNL1       -0.2872
      2 N          63.5240   89.6403   13.5323 N.3     1  UNL1       -0.2689
      3 C          62.7838   89.4321   12.2443 C.3     1  UNL1        0.0741
      4 C          62.5899   88.0454   11.7063 C.3     1  UNL1        0.0375
      5 C          63.1361   86.8668   12.4563 C.3     1  UNL1        0.0800
      6 C          63.8762   87.0749   13.7443 C.3     1  UNL1        0.0375
      7 C          64.0702   88.4616   14.2823 C.3     1  UNL1        0.0741
      8 C          63.7179   91.0269   14.0702 C.3     1  UNL1        0.0992
      9 C          67.8731   92.6324   14.7080 C.ar    1  UNL1        0.1387
     10 C          67.4713   92.1046   13.3627 C.ar    1  UNL1        0.0366
     11 C          66.0862   91.5695   13.1501 C.ar    1  UNL1        0.0002
     12 C          65.1029   91.5621   14.2828 C.ar    1  UNL1       -0.0059
     13 C          65.5048   92.0899   15.6282 C.ar    1  UNL1        0.0002
     14 C          66.8898   92.6250   15.8408 C.ar    1  UNL1        0.0366
     15 C          69.5402   94.0802   16.0770 C.3     1  UNL1        0.2525
     16 O          69.2582   93.1675   14.9206 O.3     1  UNL1       -0.4714
     17 C          62.6329   85.2759   10.4649 C.ar    1  UNL1        0.0515
     18 C          61.3817   85.8566    9.8756 C.ar    1  UNL1        0.0148
     19 C          61.0723   85.6525    8.4221 C.ar    1  UNL1        0.0051
     20 C          62.0142   84.8677    7.5578 C.ar    1  UNL1        0.0715
     21 C          63.2654   84.2870    8.1471 C.ar    1  UNL1        0.0051
     22 C          63.5748   84.4911    9.6007 C.ar    1  UNL1        0.0148
     23 C          61.7049   84.6636    6.1044 C.3     1  UNL1        0.4186
     24 F          61.3955   84.4595    4.6509 F       1  UNL1       -0.1659
     25 F          60.2383   84.7648    6.4023 F       1  UNL1       -0.1659
     26 F          63.1715   84.5624    5.8065 F       1  UNL1       -0.1659
     27 C          63.0576   84.2975   12.8338 C.ar    1  UNL1        0.0710
     28 C          62.2056   84.2167   14.0657 C.ar    1  UNL1        0.0180
     29 C          62.3211   83.0341   14.9812 C.ar    1  UNL1        0.0220
     30 C          63.2885   81.9323   14.6649 C.ar    1  UNL1        0.0990
     31 N          64.1406   82.0131   13.4330 N.ar    1  UNL1       -0.2410
     32 C          64.0252   83.1957   12.5174 C.ar    1  UNL1        0.1136
@<TRIPOS>BOND
     1    15    16    1
     2    16     9    1
     3     9    10   ar
     4    10    11   ar
     5    11    12   ar
     6    12     8    1
     7     8     2    1
     8     2     3    1
     9     3     4    1
    10     4     5    1
    11     5     1    1
    12     1    17    1
    13    17    18   ar
    14    18    19   ar
    15    19    20   ar
    16    20    23    1
    17    23    24    1
    18    23    25    1
    19    23    26    1
    20    20    21   ar
    21    21    22   ar
    22     1    27    1
    23    27    28   ar
    24    28    29   ar
    25    29    30   ar
    26    30    31   ar
    27    31    32   ar
    28     5     6    1
    29     6     7    1
    30    12    13   ar
    31    13    14   ar
    32    14     9   ar
    33     7     2    1
    34    22    17   ar
    35    32    27   ar
@<TRIPOS>MOLECULE
*****
 32 35 0 0 0
SMALL
GASTEIGER

@<TRIPOS>ATOM
      1 N          62.4452   85.6042   10.9142 N.pl3   1  UNL1       -0.2872
      2 N          63.5074   89.4725   12.9535 N.3     1  UNL1       -0.2689
      3 C          62.7187   89.4891   11.6777 C.3     1  UNL1        0.0741
      4 C          62.3646   88.1997   10.9980 C.3     1  UNL1        0.0375
      5 C          62.7993   86.8937   11.5940 C.3     1  UNL1        0.0800
      6 C          63.5880   86.8770   12.8698 C.3     1  UNL1        0.0375
      7 C          63.9421   88.1664   13.5496 C.3     1  UNL1        0.0741
      8 C          63.8614   90.7619   13.6333 C.3     1  UNL1        0.0992
      9 C          66.4520   93.7786   11.5266 C.ar    1  UNL1        0.1387
     10 C          65.4243   93.0043   10.7559 C.ar    1  UNL1        0.0366
     11 C          64.5607   91.9987   11.4581 C.ar    1  UNL1        0.0002
     12 C          64.7250   91.7675   12.9310 C.ar    1  UNL1       -0.0059
     13 C          65.7527   92.5418   13.7017 C.ar    1  UNL1        0.0002
     14 C          66.6163   93.5474   12.9995 C.ar    1  UNL1        0.0366
     15 C          66.6870   95.9427   10.1083 C.3     1  UNL1        0.2525
     16 O          67.3156   94.7842   10.8244 O.3     1  UNL1       -0.4714
     17 C          62.5620   84.3072   11.6586 C.ar    1  UNL1        0.0515
     18 C          62.4635   84.2899   13.1552 C.ar    1  UNL1        0.0148
     19 C          62.5803   82.9929   13.8996 C.ar    1  UNL1        0.0051
     20 C          62.7957   81.7131   13.1473 C.ar    1  UNL1        0.0715
     21 C          62.8943   81.7305   11.6506 C.ar    1  UNL1        0.0051
     22 C          62.7774   83.0276   10.9063 C.ar    1  UNL1        0.0148
     23 C          62.9125   80.4161   13.8916 C.3     1  UNL1        0.4186
     24 F          63.0293   79.1192   14.6360 F       1  UNL1       -0.1659
     25 F          64.3282   80.7525   14.2556 F       1  UNL1       -0.1659
     26 F          61.4968   80.0798   13.5277 F       1  UNL1       -0.1659
     27 C          61.9744   85.6119    9.4901 C.ar    1  UNL1        0.0710
     28 C          62.8508   85.0556    8.4073 C.ar    1  UNL1        0.0180
     29 C          62.3799   85.0632    6.9832 C.ar    1  UNL1        0.0220
     30 C          61.0326   85.6272    6.6417 C.ar    1  UNL1        0.0990
     31 N          60.1561   86.1835    7.7245 N.ar    1  UNL1       -0.2410
     32 C          60.6269   86.1759    9.1486 C.ar    1  UNL1        0.1136
@<TRIPOS>BOND
     1    15    16    1
     2    16     9    1
     3     9    10   ar
     4    10    11   ar
     5    11    12   ar
     6    12     8    1
     7     8     2    1
     8     2     3    1
     9     3     4    1
    10     4     5    1
    11     5     1    1
    12     1    17    1
    13    17    18   ar
    14    18    19   ar
    15    19    20   ar
    16    20    23    1
    17    23    24    1
    18    23    25    1
    19    23    26    1
    20    20    21   ar
    21    21    22   ar
    22     1    27    1
    23    27    28   ar
    24    28    29   ar
    25    29    30   ar
    26    30    31   ar
    27    31    32   ar
    28     5     6    1
    29     6     7    1
    30    12    13   ar
    31    13    14   ar
    32    14     9   ar
    33     7     2    1
    34    22    17   ar
    35    32    27   ar
@<TRIPOS>MOLECULE
*****
 32 35 0 0 0
SMALL
GASTEIGER

@<TRIPOS>ATOM
      1 N          62.7917   87.9694   11.8088 N.pl3   1  UNL1       -0.2872
      2 N          59.9716   88.4563    8.3359 N.3     1  UNL1       -0.2689
      3 C          59.9335   89.4310    9.4754 C.3     1  UNL1        0.0741
      4 C          60.8735   89.2687   10.6330 C.3     1  UNL1        0.0375
      5 C          61.8516   88.1317   10.6511 C.3     1  UNL1        0.0800
      6 C          61.8898   87.1569    9.5117 C.3     1  UNL1        0.0375
      7 C          60.9497   87.3192    8.3540 C.3     1  UNL1        0.0741
      8 C          59.0316   88.6186    7.1783 C.3     1  UNL1        0.0992
      9 C          59.4922   92.1112    4.3785 C.ar    1  UNL1        0.1387
     10 C          60.6962   91.3190    4.7936 C.ar    1  UNL1        0.0366
     11 C          60.5427   90.1547    5.7269 C.ar    1  UNL1        0.0002
     12 C          59.1851   89.7828    6.2451 C.ar    1  UNL1       -0.0059
     13 C          57.9810   90.5751    5.8299 C.ar    1  UNL1        0.0002
     14 C          58.1345   91.7393    4.8966 C.ar    1  UNL1        0.0366
     15 C          60.4896   93.1422    2.2123 C.3     1  UNL1        0.2525
     16 O          59.6457   93.2755    3.4452 O.3     1  UNL1       -0.4714
     17 C          63.5245   89.1599   12.3524 C.ar    1  UNL1        0.0515
     18 C          63.6692   90.3973   11.5170 C.ar    1  UNL1        0.0148
     19 C          64.4021   91.5878   12.0606 C.ar    1  UNL1        0.0051
     20 C          64.9903   91.5409   13.4397 C.ar    1  UNL1        0.0715
     21 C          64.8456   90.3035   14.2751 C.ar    1  UNL1        0.0051
     22 C          64.1127   89.1130   13.7314 C.ar    1  UNL1        0.0148
     23 C          65.7232   92.7314   13.9833 C.3     1  UNL1        0.4186
     24 F          66.4560   93.9219   14.5269 F       1  UNL1       -0.1659
     25 F          65.8592   93.2818   12.5946 F       1  UNL1       -0.1659
     26 F          65.5871   92.1810   15.3720 F       1  UNL1       -0.1659
     27 C          62.9988   86.6165   12.4227 C.ar    1  UNL1        0.0710
     28 C          63.8853   86.4655   13.6232 C.ar    1  UNL1        0.0180
     29 C          64.0924   85.1127   14.2372 C.ar    1  UNL1        0.0220
     30 C          63.4130   83.9109   13.6507 C.ar    1  UNL1        0.0990
     31 N          62.5264   84.0619   12.4501 N.ar    1  UNL1       -0.2410
     32 C          62.3193   85.4147   11.8361 C.ar    1  UNL1        0.1136
@<TRIPOS>BOND
     1    15    16    1
     2    16     9    1
     3     9    10   ar
     4    10    11   ar
     5    11    12   ar
     6    12     8    1
     7     8     2    1
     8     2     3    1
     9     3     4    1
    10     4     5    1
    11     5     1    1
    12     1    17    1
    13    17    18   ar
    14    18    19   ar
    15    19    20   ar
    16    20    23    1
    17    23    24    1
    18    23    25    1
    19    23    26    1
    20    20    21   ar
    21    21    22   ar
    22     1    27    1
    23    27    28   ar
    24    28    29   ar
    25    29    30   ar
    26    30    31   ar
    27    31    32   ar
    28     5     6    1
    29     6     7    1
    30    12    13   ar
    31    13    14   ar
    32    14     9   ar
    33     7     2    1
    34    22    17   ar
    35    32    27   ar
