@<TRIPOS>MOLECULE
*****
 34 36 0 0 0
SMALL
GASTEIGER

@<TRIPOS>ATOM
      1 C          61.0736   88.6983   10.4099 C.ar    1  UNL1       -0.0024
      2 C          60.0056   88.9825    9.3958 C.ar    1  UNL1       -0.0026
      3 C          59.8069   88.0531    8.2352 C.ar    1  UNL1       -0.0001
      4 C          60.6762   86.8395    8.0889 C.ar    1  UNL1        0.0045
      5 C          61.7442   86.5552    9.1031 C.ar    1  UNL1        0.0531
      6 C          61.9429   87.4846   10.2636 C.ar    1  UNL1        0.0019
      7 C          62.6135   85.3416    8.9568 C.2     1  UNL1        0.2458
      8 O          63.0425   84.8863    7.5935 O.2     1  UNL1       -0.2701
      9 N          63.0538   84.5833   10.1739 N.am    1  UNL1       -0.3009
     10 H          62.7723   84.8822   11.0687 H       1  UNL1        0.1497
     11 C          63.9231   83.3697   10.0276 C.3     1  UNL1        0.0897
     12 C          64.6052   82.7864   11.2294 C.3     1  UNL1        0.0213
     13 C          63.8853   82.7242   12.5439 C.3     1  UNL1        0.0044
     14 C          62.7579   81.7537   12.7364 C.3     1  UNL1        0.0172
     15 C          62.0380   81.6915   14.0508 C.3     1  UNL1        0.0686
     16 N          62.4454   82.5998   15.1728 N.3     1  UNL1       -0.2975
     17 C          63.5728   83.5703   14.9803 C.3     1  UNL1        0.0686
     18 C          64.2927   83.6325   13.6659 C.3     1  UNL1        0.0172
     19 H          62.7029   82.0013   15.9576 H       1  UNL1        0.1232
     20 C          61.2724   89.6277   11.5704 C.3     1  UNL1        0.1166
     21 C          63.1634   90.3643   13.1925 C.2     1  UNL1        0.2462
     22 O          62.3767   89.8298   14.3524 O.2     1  UNL1       -0.2701
     23 N          62.6112   90.2633   11.8015 N.am    1  UNL1       -0.2969
     24 H          63.1276   90.6141   11.0402 H       1  UNL1        0.1501
     25 C          67.1801   92.2711   13.8857 C.ar    1  UNL1        0.1724
     26 C          66.6240   91.3070   14.8913 C.ar    1  UNL1        0.0402
     27 C          65.2851   90.6714   14.6602 C.ar    1  UNL1        0.0078
     28 C          64.5023   90.9999   13.4236 C.ar    1  UNL1        0.0566
     29 C          65.0585   91.9640   12.4180 C.ar    1  UNL1        0.0446
     30 C          66.3974   92.5996   12.6491 C.ar    1  UNL1        0.1725
     31 C          68.9852   93.1863   15.5148 C.3     1  UNL1        0.2526
     32 O          68.5190   92.9067   14.1168 O.3     1  UNL1       -0.4684
     33 O          66.9535   93.5637   11.6435 O.3     1  UNL1       -0.4684
     34 C          66.1938   94.8107   11.3001 C.3     1  UNL1        0.2526
@<TRIPOS>BOND
     1    31    32    1
     2    32    25    1
     3    25    26   ar
     4    26    27   ar
     5    27    28   ar
     6    28    21    1
     7    21    22    2
     8    21    23   am
     9    23    20    1
    10    20     1    1
    11     1     2   ar
    12     2     3   ar
    13     3     4   ar
    14     4     5   ar
    15     5     7    1
    16     7     8    2
    17     7     9   am
    18     9    11    1
    19    11    12    1
    20    12    13    1
    21    13    14    1
    22    14    15    1
    23    15    16    1
    24    16    17    1
    25    17    18    1
    26     5     6   ar
    27    28    29   ar
    28    29    30   ar
    29    30    33    1
    30    33    34    1
    31    30    25   ar
    32     6     1   ar
    33    18    13    1
    34    23    24    1
    35     9    10    1
    36    16    19    1
@<TRIPOS>MOLECULE
*****
 34 36 0 0 0
SMALL
GASTEIGER

@<TRIPOS>ATOM
      1 C          63.5779   85.5167   14.9931 C.ar    1  UNL1       -0.0024
      2 C          62.9220   84.4617   15.8337 C.ar    1  UNL1       -0.0026
      3 C          62.5584   83.1385   15.2278 C.ar    1  UNL1       -0.0001
      4 C          62.8509   82.8704   13.7813 C.ar    1  UNL1        0.0045
      5 C          63.5068   83.9254   12.9406 C.ar    1  UNL1        0.0531
      6 C          63.8703   85.2485   13.5465 C.ar    1  UNL1        0.0019
      7 C          63.7992   83.6573   11.4940 C.2     1  UNL1        0.2458
      8 O          64.7440   82.5569   11.1113 O.2     1  UNL1       -0.2701
      9 N          63.1468   84.4896   10.4301 N.am    1  UNL1       -0.3009
     10 H          62.5267   85.2118   10.6813 H       1  UNL1        0.1497
     11 C          63.4392   84.2214    8.9836 C.3     1  UNL1        0.0897
     12 C          62.8698   85.1181    7.9245 C.3     1  UNL1        0.0213
     13 C          61.7395   86.0468    8.2563 C.3     1  UNL1        0.0044
     14 C          60.3942   85.8468    7.6239 C.3     1  UNL1        0.0172
     15 C          59.2639   86.7755    7.9557 C.3     1  UNL1        0.0686
     16 N          59.4790   87.9042    8.9199 N.3     1  UNL1       -0.2975
     17 C          60.8244   88.1042    9.5523 C.3     1  UNL1        0.0686
     18 C          61.9546   87.1755    9.2205 C.3     1  UNL1        0.0172
     19 H          58.8127   87.7725    9.6808 H       1  UNL1        0.1232
     20 C          63.9414   86.8399   15.5990 C.3     1  UNL1        0.1166
     21 C          63.9291   89.3047   14.7776 C.2     1  UNL1        0.2462
     22 O          62.7643   89.5982   15.6759 O.2     1  UNL1       -0.2701
     23 N          64.5177   87.9255   14.7391 N.am    1  UNL1       -0.2969
     24 H          65.2822   87.7329   14.1495 H       1  UNL1        0.1501
     25 C          65.6578   92.5615   12.1980 C.ar    1  UNL1        0.1724
     26 C          64.4230   91.8323   11.7582 C.ar    1  UNL1        0.0402
     27 C          63.8468   90.7467   12.6180 C.ar    1  UNL1        0.0078
     28 C          64.5053   90.3903   13.9177 C.ar    1  UNL1        0.0566
     29 C          65.7401   91.1195   14.3575 C.ar    1  UNL1        0.0446
     30 C          66.3164   92.2051   13.4977 C.ar    1  UNL1        0.1725
     31 C          66.9110   93.3002   10.0454 C.3     1  UNL1        0.2526
     32 O          66.2340   93.6472   11.3381 O.3     1  UNL1       -0.4684
     33 O          67.5512   92.9344   13.9375 O.3     1  UNL1       -0.4684
     34 C          67.6892   93.3845   15.3617 C.3     1  UNL1        0.2526
@<TRIPOS>BOND
     1    31    32    1
     2    32    25    1
     3    25    26   ar
     4    26    27   ar
     5    27    28   ar
     6    28    21    1
     7    21    22    2
     8    21    23   am
     9    23    20    1
    10    20     1    1
    11     1     2   ar
    12     2     3   ar
    13     3     4   ar
    14     4     5   ar
    15     5     7    1
    16     7     8    2
    17     7     9   am
    18     9    11    1
    19    11    12    1
    20    12    13    1
    21    13    14    1
    22    14    15    1
    23    15    16    1
    24    16    17    1
    25    17    18    1
    26     5     6   ar
    27    28    29   ar
    28    29    30   ar
    29    30    33    1
    30    33    34    1
    31    30    25   ar
    32     6     1   ar
    33    18    13    1
    34    23    24    1
    35     9    10    1
    36    16    19    1
@<TRIPOS>MOLECULE
*****
 34 36 0 0 0
SMALL
GASTEIGER

@<TRIPOS>ATOM
      1 C          60.2737   88.1264    9.8565 C.ar    1  UNL1       -0.0024
      2 C          59.1707   88.0936    8.8405 C.ar    1  UNL1       -0.0026
      3 C          59.1713   87.0465    7.7664 C.ar    1  UNL1       -0.0001
      4 C          60.2749   86.0322    7.7084 C.ar    1  UNL1        0.0045
      5 C          61.3779   86.0651    8.7245 C.ar    1  UNL1        0.0531
      6 C          61.3773   87.1121    9.7985 C.ar    1  UNL1        0.0019
      7 C          62.4815   85.0508    8.6665 C.2     1  UNL1        0.2458
      8 O          62.9941   84.5752    7.3394 O.2     1  UNL1       -0.2701
      9 N          63.0725   84.5121    9.9356 N.am    1  UNL1       -0.3009
     10 H          62.7360   84.8242   10.8066 H       1  UNL1        0.1497
     11 C          64.1761   83.4978    9.8776 C.3     1  UNL1        0.0897
     12 C          64.0007   82.1603   10.5334 C.3     1  UNL1        0.0213
     13 C          63.5960   82.0794   11.9756 C.3     1  UNL1        0.0044
     14 C          62.7415   80.9424   12.4521 C.3     1  UNL1        0.0172
     15 C          62.3368   80.8616   13.8942 C.3     1  UNL1        0.0686
     16 N          62.7866   81.9176   14.8598 N.3     1  UNL1       -0.2975
     17 C          63.6411   83.0546   14.3832 C.3     1  UNL1        0.0686
     18 C          64.0458   83.1355   12.9411 C.3     1  UNL1        0.0172
     19 H          63.3121   81.4416   15.5931 H       1  UNL1        0.1232
     20 C          60.2731   89.1735   10.9306 C.3     1  UNL1        0.1166
     21 C          62.6097   90.0226   11.6852 C.2     1  UNL1        0.2462
     22 O          62.8379   88.7375   12.4244 O.2     1  UNL1       -0.2701
     23 N          61.3273   90.2406   10.9383 N.am    1  UNL1       -0.2969
     24 H          61.1775   91.0840   10.4531 H       1  UNL1        0.1501
     25 C          65.7722   93.2238   11.7082 C.ar    1  UNL1        0.1724
     26 C          65.0077   92.9339   10.4507 C.ar    1  UNL1        0.0402
     27 C          63.9535   91.8668   10.4430 C.ar    1  UNL1        0.0078
     28 C          63.6639   91.0897   11.6929 C.ar    1  UNL1        0.0566
     29 C          64.4284   91.3796   12.9504 C.ar    1  UNL1        0.0446
     30 C          65.4826   92.4467   12.9581 C.ar    1  UNL1        0.1725
     31 C          67.1434   95.0411   10.4563 C.3     1  UNL1        0.2526
     32 O          66.8264   94.2909   11.7159 O.3     1  UNL1       -0.4684
     33 O          66.2471   92.7366   14.2157 O.3     1  UNL1       -0.4684
     34 C          67.6067   92.1377   14.4218 C.3     1  UNL1        0.2526
@<TRIPOS>BOND
     1    31    32    1
     2    32    25    1
     3    25    26   ar
     4    26    27   ar
     5    27    28   ar
     6    28    21    1
     7    21    22    2
     8    21    23   am
     9    23    20    1
    10    20     1    1
    11     1     2   ar
    12     2     3   ar
    13     3     4   ar
    14     4     5   ar
    15     5     7    1
    16     7     8    2
    17     7     9   am
    18     9    11    1
    19    11    12    1
    20    12    13    1
    21    13    14    1
    22    14    15    1
    23    15    16    1
    24    16    17    1
    25    17    18    1
    26     5     6   ar
    27    28    29   ar
    28    29    30   ar
    29    30    33    1
    30    33    34    1
    31    30    25   ar
    32     6     1   ar
    33    18    13    1
    34    23    24    1
    35     9    10    1
    36    16    19    1
@<TRIPOS>MOLECULE
*****
 34 36 0 0 0
SMALL
GASTEIGER

@<TRIPOS>ATOM
      1 C          60.7046   88.7717    9.7144 C.ar    1  UNL1       -0.0024
      2 C          59.8759   88.4302    8.5117 C.ar    1  UNL1       -0.0026
      3 C          59.9525   87.0568    7.9134 C.ar    1  UNL1       -0.0001
      4 C          60.8578   86.0249    8.5179 C.ar    1  UNL1        0.0045
      5 C          61.6866   86.3663    9.7207 C.ar    1  UNL1        0.0531
      6 C          61.6100   87.7397   10.3189 C.ar    1  UNL1        0.0019
      7 C          62.5919   85.3344   10.3252 C.2     1  UNL1        0.2458
      8 O          62.8317   85.3219   11.8059 O.2     1  UNL1       -0.2701
      9 N          63.2576   84.3149    9.4490 N.am    1  UNL1       -0.3009
     10 H          63.1002   84.3231    8.4772 H       1  UNL1        0.1497
     11 C          64.1629   83.2830   10.0535 C.3     1  UNL1        0.0897
     12 C          63.5805   82.0681   10.7128 C.3     1  UNL1        0.0213
     13 C          63.2577   82.0917   12.1775 C.3     1  UNL1        0.0044
     14 C          64.1355   82.8521   13.1268 C.3     1  UNL1        0.0172
     15 C          63.8127   82.8757   14.5915 C.3     1  UNL1        0.0686
     16 N          62.6121   82.1389   15.1068 N.3     1  UNL1       -0.2975
     17 C          61.7343   81.3785   14.1576 C.3     1  UNL1        0.0686
     18 C          62.0571   81.3549   12.6929 C.3     1  UNL1        0.0172
     19 H          62.0189   82.8287   15.5681 H       1  UNL1        0.1232
     20 C          60.6280   90.1451   10.3127 C.3     1  UNL1        0.1166
     21 C          62.8968   90.8928   11.3343 C.2     1  UNL1        0.2462
     22 O          63.4956   90.9527    9.9603 O.2     1  UNL1       -0.2701
     23 N          61.4630   90.4890   11.5105 N.am    1  UNL1       -0.2969
     24 H          61.0699   90.4497   12.4122 H       1  UNL1        0.1501
     25 C          65.4016   91.9246   14.9275 C.ar    1  UNL1        0.1724
     26 C          65.8257   92.3786   13.5622 C.ar    1  UNL1        0.0402
     27 C          64.9907   92.0347   12.3645 C.ar    1  UNL1        0.0078
     28 C          63.7317   91.2368   12.5320 C.ar    1  UNL1        0.0566
     29 C          63.3076   90.7827   13.8973 C.ar    1  UNL1        0.0446
     30 C          64.1426   91.1267   15.0950 C.ar    1  UNL1        0.1725
     31 C          67.7152   92.4715   15.9755 C.3     1  UNL1        0.2526
     32 O          66.2366   92.2685   16.1252 O.3     1  UNL1       -0.4684
     33 O          63.7185   90.6726   16.4603 O.3     1  UNL1       -0.4684
     34 C          63.1091   89.3142   16.6433 C.3     1  UNL1        0.2526
@<TRIPOS>BOND
     1    31    32    1
     2    32    25    1
     3    25    26   ar
     4    26    27   ar
     5    27    28   ar
     6    28    21    1
     7    21    22    2
     8    21    23   am
     9    23    20    1
    10    20     1    1
    11     1     2   ar
    12     2     3   ar
    13     3     4   ar
    14     4     5   ar
    15     5     7    1
    16     7     8    2
    17     7     9   am
    18     9    11    1
    19    11    12    1
    20    12    13    1
    21    13    14    1
    22    14    15    1
    23    15    16    1
    24    16    17    1
    25    17    18    1
    26     5     6   ar
    27    28    29   ar
    28    29    30   ar
    29    30    33    1
    30    33    34    1
    31    30    25   ar
    32     6     1   ar
    33    18    13    1
    34    23    24    1
    35     9    10    1
    36    16    19    1
@<TRIPOS>MOLECULE
*****
 34 36 0 0 0
SMALL
GASTEIGER

@<TRIPOS>ATOM
      1 C          63.5316   85.2558   14.9622 C.ar    1  UNL1       -0.0024
      2 C          62.8966   84.1527   15.7558 C.ar    1  UNL1       -0.0026
      3 C          62.5610   82.8493   15.0934 C.ar    1  UNL1       -0.0001
      4 C          62.8605   82.6492   13.6373 C.ar    1  UNL1        0.0045
      5 C          63.4955   83.7523   12.8436 C.ar    1  UNL1        0.0531
      6 C          63.8310   85.0556   13.5061 C.ar    1  UNL1        0.0019
      7 C          63.7950   83.5521   11.3875 C.2     1  UNL1        0.2458
      8 O          64.7455   82.4740   10.9586 O.2     1  UNL1       -0.2701
      9 N          63.1439   84.4302   10.3603 N.am    1  UNL1       -0.3009
     10 H          62.5200   85.1379   10.6418 H       1  UNL1        0.1497
     11 C          63.4434   84.2300    8.9042 C.3     1  UNL1        0.0897
     12 C          62.8872   85.1812    7.8864 C.3     1  UNL1        0.0213
     13 C          61.7087   86.0430    8.2305 C.3     1  UNL1        0.0044
     14 C          61.8565   87.1513    9.2304 C.3     1  UNL1        0.0172
     15 C          60.6780   88.0131    9.5745 C.3     1  UNL1        0.0686
     16 N          59.3516   87.7666    8.9187 N.3     1  UNL1       -0.2975
     17 C          59.2038   86.6583    7.9189 C.3     1  UNL1        0.0686
     18 C          60.3823   85.7965    7.5748 C.3     1  UNL1        0.0172
     19 H          59.0943   88.6303    8.4411 H       1  UNL1        0.1232
     20 C          63.8671   86.5591   15.6246 C.3     1  UNL1        0.1166
     21 C          63.8652   89.0880   15.0291 C.2     1  UNL1        0.2462
     22 O          62.8101   89.3316   16.0671 O.2     1  UNL1       -0.2701
     23 N          64.3937   87.7018   14.8079 N.am    1  UNL1       -0.2969
     24 H          65.0863   87.5419   14.1267 H       1  UNL1        0.1501
     25 C          65.4451   92.5160   12.5791 C.ar    1  UNL1        0.1724
     26 C          65.9618   92.2863   13.9684 C.ar    1  UNL1        0.0402
     27 C          65.4352   91.1437   14.7851 C.ar    1  UNL1        0.0078
     28 C          64.3919   90.2307   14.2124 C.ar    1  UNL1        0.0566
     29 C          63.8752   90.4604   12.8231 C.ar    1  UNL1        0.0446
     30 C          64.4018   91.6031   12.0064 C.ar    1  UNL1        0.1725
     31 C          66.9168   93.3965   10.6274 C.3     1  UNL1        0.2526
     32 O          65.9717   93.6587   11.7624 O.3     1  UNL1       -0.4684
     33 O          63.8850   91.8327   10.6171 O.3     1  UNL1       -0.4684
     34 C          62.7783   90.9761   10.0773 C.3     1  UNL1        0.2526
@<TRIPOS>BOND
     1    31    32    1
     2    32    25    1
     3    25    26   ar
     4    26    27   ar
     5    27    28   ar
     6    28    21    1
     7    21    22    2
     8    21    23   am
     9    23    20    1
    10    20     1    1
    11     1     2   ar
    12     2     3   ar
    13     3     4   ar
    14     4     5   ar
    15     5     7    1
    16     7     8    2
    17     7     9   am
    18     9    11    1
    19    11    12    1
    20    12    13    1
    21    13    14    1
    22    14    15    1
    23    15    16    1
    24    16    17    1
    25    17    18    1
    26     5     6   ar
    27    28    29   ar
    28    29    30   ar
    29    30    33    1
    30    33    34    1
    31    30    25   ar
    32     6     1   ar
    33    18    13    1
    34    23    24    1
    35     9    10    1
    36    16    19    1
@<TRIPOS>MOLECULE
*****
 34 36 0 0 0
SMALL
GASTEIGER

@<TRIPOS>ATOM
      1 C          62.0595   86.8214    9.7901 C.ar    1  UNL1       -0.0024
      2 C          62.3802   86.2193    8.4542 C.ar    1  UNL1       -0.0026
      3 C          62.9291   84.8257    8.3719 C.ar    1  UNL1       -0.0001
      4 C          63.1572   84.0342    9.6255 C.ar    1  UNL1        0.0045
      5 C          62.8365   84.6364   10.9615 C.ar    1  UNL1        0.0531
      6 C          62.2876   86.0299   11.0437 C.ar    1  UNL1        0.0019
      7 C          63.0646   83.8450   12.2151 C.2     1  UNL1        0.2458
      8 O          62.3201   82.5620   12.4380 O.2     1  UNL1       -0.2701
      9 N          64.0373   84.3366   13.2458 N.am    1  UNL1       -0.3009
     10 H          64.5259   85.1786   13.0995 H       1  UNL1        0.1497
     11 C          64.2654   83.5451   14.4994 C.3     1  UNL1        0.0897
     12 C          64.0368   84.1798   15.8391 C.3     1  UNL1        0.0213
     13 C          63.8264   85.6615   15.9410 C.3     1  UNL1        0.0044
     14 C          64.3891   86.5729   14.8910 C.3     1  UNL1        0.0172
     15 C          64.1787   88.0545   14.9929 C.3     1  UNL1        0.0686
     16 N          63.4055   88.6248   16.1448 N.3     1  UNL1       -0.2975
     17 C          62.8428   87.7134   17.1948 C.3     1  UNL1        0.0686
     18 C          63.0532   86.2318   17.0929 C.3     1  UNL1        0.0172
     19 H          62.6183   89.1366   15.7464 H       1  UNL1        0.1232
     20 C          61.5106   88.2150    9.8724 C.3     1  UNL1        0.1166
     21 C          62.8208   89.8674   11.3899 C.2     1  UNL1        0.2462
     22 O          62.2666   89.1886   12.6073 O.2     1  UNL1       -0.2701
     23 N          62.4428   89.3805   10.0224 N.am    1  UNL1       -0.2969
     24 H          62.8065   89.8260    9.2233 H       1  UNL1        0.1501
     25 C          65.6174   93.3640   11.8400 C.ar    1  UNL1        0.1724
     26 C          65.0189   93.0498   10.5010 C.ar    1  UNL1        0.0402
     27 C          64.0867   91.8843   10.3509 C.ar    1  UNL1        0.0078
     28 C          63.7530   91.0329   11.5399 C.ar    1  UNL1        0.0566
     29 C          64.3515   91.3471   12.8790 C.ar    1  UNL1        0.0446
     30 C          65.2837   92.5126   13.0290 C.ar    1  UNL1        0.1725
     31 C          66.7612   95.4731   10.8434 C.3     1  UNL1        0.2526
     32 O          66.5495   94.5296   11.9901 O.3     1  UNL1       -0.4684
     33 O          65.8821   92.8268   14.3681 O.3     1  UNL1       -0.4684
     34 C          67.1113   92.1011   14.8292 C.3     1  UNL1        0.2526
@<TRIPOS>BOND
     1    31    32    1
     2    32    25    1
     3    25    26   ar
     4    26    27   ar
     5    27    28   ar
     6    28    21    1
     7    21    22    2
     8    21    23   am
     9    23    20    1
    10    20     1    1
    11     1     2   ar
    12     2     3   ar
    13     3     4   ar
    14     4     5   ar
    15     5     7    1
    16     7     8    2
    17     7     9   am
    18     9    11    1
    19    11    12    1
    20    12    13    1
    21    13    14    1
    22    14    15    1
    23    15    16    1
    24    16    17    1
    25    17    18    1
    26     5     6   ar
    27    28    29   ar
    28    29    30   ar
    29    30    33    1
    30    33    34    1
    31    30    25   ar
    32     6     1   ar
    33    18    13    1
    34    23    24    1
    35     9    10    1
    36    16    19    1
@<TRIPOS>MOLECULE
*****
 34 36 0 0 0
SMALL
GASTEIGER

@<TRIPOS>ATOM
      1 C          61.5174   88.2459   10.2621 C.ar    1  UNL1       -0.0024
      2 C          60.8943   87.8479    8.9570 C.ar    1  UNL1       -0.0026
      3 C          60.8918   86.4084    8.5350 C.ar    1  UNL1       -0.0001
      4 C          61.5126   85.3670    9.4182 C.ar    1  UNL1        0.0045
      5 C          62.1357   85.7650   10.7234 C.ar    1  UNL1        0.0531
      6 C          62.1382   87.2044   11.1453 C.ar    1  UNL1        0.0019
      7 C          62.7565   84.7235   11.6066 C.2     1  UNL1        0.2458
      8 O          62.5295   83.2681   11.3236 O.2     1  UNL1       -0.2701
      9 N          63.6042   85.1376   12.7728 N.am    1  UNL1       -0.3009
     10 H          63.7532   86.0928   12.9585 H       1  UNL1        0.1497
     11 C          64.2250   84.0961   13.6560 C.3     1  UNL1        0.0897
     12 C          64.1467   84.2341   15.1475 C.3     1  UNL1        0.0213
     13 C          63.7427   85.5427   15.7595 C.3     1  UNL1        0.0044
     14 C          62.8268   85.5642   16.9471 C.3     1  UNL1        0.0172
     15 C          62.4228   86.8727   17.5591 C.3     1  UNL1        0.0686
     16 N          62.9346   88.1598   16.9834 N.3     1  UNL1       -0.2975
     17 C          63.8506   88.1382   15.7957 C.3     1  UNL1        0.0686
     18 C          64.2546   86.8297   15.1838 C.3     1  UNL1        0.0172
     19 H          63.4346   88.6390   17.7322 H       1  UNL1        0.1232
     20 C          61.5199   89.6853   10.6840 C.3     1  UNL1        0.1166
     21 C          63.1580   90.4458   12.5517 C.2     1  UNL1        0.2462
     22 O          62.2304   89.8903   13.5914 O.2     1  UNL1       -0.2701
     23 N          62.8027   90.3434   11.0980 N.am    1  UNL1       -0.2969
     24 H          63.4115   90.7080   10.4156 H       1  UNL1        0.1501
     25 C          67.0065   92.4199   13.7936 C.ar    1  UNL1        0.1724
     26 C          66.3727   91.3885   14.6793 C.ar    1  UNL1        0.0402
     27 C          65.0899   90.7304   14.2653 C.ar    1  UNL1        0.0078
     28 C          64.4408   91.1039   12.9656 C.ar    1  UNL1        0.0566
     29 C          65.0745   92.1353   12.0800 C.ar    1  UNL1        0.0446
     30 C          66.3574   92.7933   12.4939 C.ar    1  UNL1        0.1725
     31 C          68.4670   93.5531   15.6191 C.3     1  UNL1        0.2526
     32 O          68.2893   93.0779   14.2076 O.3     1  UNL1       -0.4684
     33 O          66.9911   93.8248   11.6082 O.3     1  UNL1       -0.4684
     34 C          66.6721   93.8531   10.1428 C.3     1  UNL1        0.2526
@<TRIPOS>BOND
     1    31    32    1
     2    32    25    1
     3    25    26   ar
     4    26    27   ar
     5    27    28   ar
     6    28    21    1
     7    21    22    2
     8    21    23   am
     9    23    20    1
    10    20     1    1
    11     1     2   ar
    12     2     3   ar
    13     3     4   ar
    14     4     5   ar
    15     5     7    1
    16     7     8    2
    17     7     9   am
    18     9    11    1
    19    11    12    1
    20    12    13    1
    21    13    14    1
    22    14    15    1
    23    15    16    1
    24    16    17    1
    25    17    18    1
    26     5     6   ar
    27    28    29   ar
    28    29    30   ar
    29    30    33    1
    30    33    34    1
    31    30    25   ar
    32     6     1   ar
    33    18    13    1
    34    23    24    1
    35     9    10    1
    36    16    19    1
@<TRIPOS>MOLECULE
*****
 34 36 0 0 0
SMALL
GASTEIGER

@<TRIPOS>ATOM
      1 C          63.6914   90.8393   12.3246 C.ar    1  UNL1       -0.0024
      2 C          64.7113   91.8478   12.7636 C.ar    1  UNL1       -0.0026
      3 C          65.4764   91.6356   14.0363 C.ar    1  UNL1       -0.0001
      4 C          65.2214   90.4150   14.8700 C.ar    1  UNL1        0.0045
      5 C          64.2014   89.4065   14.4310 C.ar    1  UNL1        0.0531
      6 C          63.4365   89.6187   13.1583 C.ar    1  UNL1        0.0019
      7 C          63.9465   88.1859   15.2647 C.2     1  UNL1        0.2458
      8 O          63.2777   88.3166   16.6009 O.2     1  UNL1       -0.2701
      9 N          64.3604   86.8345   14.7620 N.am    1  UNL1       -0.3009
     10 H          64.7993   86.7487   13.8850 H       1  UNL1        0.1497
     11 C          64.1054   85.6139   15.5957 C.3     1  UNL1        0.0897
     12 C          62.9136   84.7480   15.3130 C.3     1  UNL1        0.0213
     13 C          63.0584   83.5324   14.4463 C.3     1  UNL1        0.0044
     14 C          64.1835   83.4455   13.4582 C.3     1  UNL1        0.0172
     15 C          64.3283   82.2298   12.5914 C.3     1  UNL1        0.0686
     16 N          63.3480   81.1010   12.7129 N.3     1  UNL1       -0.2975
     17 C          62.2229   81.1879   13.7011 C.3     1  UNL1        0.0686
     18 C          62.0781   82.4036   14.5678 C.3     1  UNL1        0.0172
     19 H          63.8861   80.2681   12.9518 H       1  UNL1        0.1232
     20 C          62.9264   91.0515   11.0519 C.3     1  UNL1        0.1166
     21 C          61.4617   89.0684   10.2320 C.2     1  UNL1        0.2462
     22 O          60.4470   89.3797   11.2920 O.2     1  UNL1       -0.2701
     23 N          62.7014   89.9043   10.1120 N.am    1  UNL1       -0.2969
     24 H          63.3673   89.7000    9.4163 H       1  UNL1        0.1501
     25 C          60.7867   85.6269    7.4124 C.ar    1  UNL1        0.1724
     26 C          59.7678   86.7229    7.5156 C.ar    1  UNL1        0.0402
     27 C          59.9928   87.8701    8.4555 C.ar    1  UNL1        0.0078
     28 C          61.2367   87.9213    9.2921 C.ar    1  UNL1        0.0566
     29 C          62.2556   86.8253    9.1889 C.ar    1  UNL1        0.0446
     30 C          62.0305   85.6781    8.2490 C.ar    1  UNL1        0.1725
     31 C          61.5908   84.1493    5.4325 C.3     1  UNL1        0.2526
     32 O          60.5616   84.4798    6.4725 O.3     1  UNL1       -0.4684
     33 O          63.0495   84.5821    8.1458 O.3     1  UNL1       -0.4684
     34 C          63.6232   83.9719    9.3902 C.3     1  UNL1        0.2526
@<TRIPOS>BOND
     1    31    32    1
     2    32    25    1
     3    25    26   ar
     4    26    27   ar
     5    27    28   ar
     6    28    21    1
     7    21    22    2
     8    21    23   am
     9    23    20    1
    10    20     1    1
    11     1     2   ar
    12     2     3   ar
    13     3     4   ar
    14     4     5   ar
    15     5     7    1
    16     7     8    2
    17     7     9   am
    18     9    11    1
    19    11    12    1
    20    12    13    1
    21    13    14    1
    22    14    15    1
    23    15    16    1
    24    16    17    1
    25    17    18    1
    26     5     6   ar
    27    28    29   ar
    28    29    30   ar
    29    30    33    1
    30    33    34    1
    31    30    25   ar
    32     6     1   ar
    33    18    13    1
    34    23    24    1
    35     9    10    1
    36    16    19    1
@<TRIPOS>MOLECULE
*****
 34 36 0 0 0
SMALL
GASTEIGER

@<TRIPOS>ATOM
      1 C          64.2385   88.7027   14.1590 C.ar    1  UNL1       -0.0024
      2 C          64.9466   89.9181   14.6800 C.ar    1  UNL1       -0.0026
      3 C          64.8199   91.2270   13.9583 C.ar    1  UNL1       -0.0001
      4 C          63.9850   91.3205   12.7157 C.ar    1  UNL1        0.0045
      5 C          63.2768   90.1051   12.1947 C.ar    1  UNL1        0.0531
      6 C          63.4036   88.7963   12.9163 C.ar    1  UNL1        0.0019
      7 C          62.4419   90.1986   10.9520 C.2     1  UNL1        0.2458
      8 O          62.8497   91.1217    9.8422 O.2     1  UNL1       -0.2701
      9 N          61.1993   89.3690   10.8192 N.am    1  UNL1       -0.3009
     10 H          60.9316   88.7632   11.5476 H       1  UNL1        0.1497
     11 C          60.3644   89.4625    9.5765 C.3     1  UNL1        0.0897
     12 C          59.7841   88.2206    8.9676 C.3     1  UNL1        0.0213
     13 C          60.6902   87.1195    8.5022 C.3     1  UNL1        0.0044
     14 C          62.0478   86.9545    9.1185 C.3     1  UNL1        0.0172
     15 C          62.9539   85.8535    8.6531 C.3     1  UNL1        0.0686
     16 N          62.5025   84.9174    7.5714 N.3     1  UNL1       -0.2975
     17 C          61.1450   85.0825    6.9551 C.3     1  UNL1        0.0686
     18 C          60.2389   86.1835    7.4205 C.3     1  UNL1        0.0172
     19 H          62.5354   83.9764    7.9637 H       1  UNL1        0.1232
     20 C          64.3652   87.3938   14.8807 C.3     1  UNL1        0.1166
     21 C          63.3530   85.0093   14.6819 C.2     1  UNL1        0.2462
     22 O          62.6412   85.2026   15.9880 O.2     1  UNL1       -0.2701
     23 N          64.2150   86.1049   14.1282 N.am    1  UNL1       -0.2969
     24 H          64.6822   85.9781   13.2709 H       1  UNL1        0.1501
     25 C          62.9024   81.1426   12.4245 C.ar    1  UNL1        0.1724
     26 C          63.7934   82.2241   11.8893 C.ar    1  UNL1        0.0402
     27 C          63.9436   83.5130   12.6417 C.ar    1  UNL1        0.0078
     28 C          63.2028   83.7204   13.9294 C.ar    1  UNL1        0.0566
     29 C          62.3118   82.6389   14.4646 C.ar    1  UNL1        0.0446
     30 C          62.1616   81.3501   13.7121 C.ar    1  UNL1        0.1725
     31 C          62.9238   79.8308   10.1820 C.3     1  UNL1        0.2526
     32 O          62.7522   79.8537   11.6720 O.3     1  UNL1       -0.4684
     33 O          61.2705   80.2686   14.2474 O.3     1  UNL1       -0.4684
     34 C          59.7805   80.4368   14.2087 C.3     1  UNL1        0.2526
@<TRIPOS>BOND
     1    31    32    1
     2    32    25    1
     3    25    26   ar
     4    26    27   ar
     5    27    28   ar
     6    28    21    1
     7    21    22    2
     8    21    23   am
     9    23    20    1
    10    20     1    1
    11     1     2   ar
    12     2     3   ar
    13     3     4   ar
    14     4     5   ar
    15     5     7    1
    16     7     8    2
    17     7     9   am
    18     9    11    1
    19    11    12    1
    20    12    13    1
    21    13    14    1
    22    14    15    1
    23    15    16    1
    24    16    17    1
    25    17    18    1
    26     5     6   ar
    27    28    29   ar
    28    29    30   ar
    29    30    33    1
    30    33    34    1
    31    30    25   ar
    32     6     1   ar
    33    18    13    1
    34    23    24    1
    35     9    10    1
    36    16    19    1
