@<TRIPOS>MOLECULE
*****
 58 63 0 0 0
SMALL
GASTEIGER

@<TRIPOS>ATOM
      1 N          59.8580   90.3922    6.0878 N.3     1  UNL1       -0.2650
      2 C          59.4940   91.0336    7.3939 C.3     1  UNL1        0.0900
      3 C          59.3597   90.1944    8.6299 C.3     1  UNL1        0.0901
      4 N          59.5895   88.7138    8.5598 N.3     1  UNL1       -0.2621
      5 C          59.9535   88.0723    7.2536 C.3     1  UNL1        0.1510
      6 C          60.0877   88.9115    6.0176 C.3     1  UNL1        0.0980
      7 C          60.1832   86.5917    7.1834 C.2     1  UNL1        0.2386
      8 O          59.0144   85.6528    7.1367 O.2     1  UNL1       -0.2736
      9 N          61.5818   86.0500    7.1600 N.am    1  UNL1       -0.2961
     10 H          62.3490   86.6662    7.1907 H       1  UNL1        0.1497
     11 C          61.8116   84.5694    7.0899 C.3     1  UNL1        0.1939
     12 C          61.8976   83.8861    5.7574 C.3     1  UNL1        0.4154
     13 F          61.9836   83.2028    4.4248 F       1  UNL1       -0.1682
     14 F          63.2785   84.4387    5.5632 F       1  UNL1       -0.1682
     15 F          60.5167   83.3335    5.9516 F       1  UNL1       -0.1682
     16 C          61.4400   90.8520    4.7514 C.3     1  UNL1        0.0255
     17 C          59.9922   91.2314    4.8518 C.3     1  UNL1        0.1147
     18 C          58.5445   91.6109    4.9521 C.3     1  UNL1        0.0255
     19 C          60.1265   92.0706    3.6158 C.ar    1  UNL1        0.2185
     20 N          59.0053   92.7431    2.8805 N.ar    1  UNL1       -0.2094
     21 C          59.5913   93.4728    1.7083 C.ar    1  UNL1        0.1392
     22 C          61.0749   93.2513    1.7191 C.ar    1  UNL1        0.1674
     23 O          61.4057   92.3847    2.8979 O.2     1  UNL1       -0.4370
     24 C          62.0555   93.8000    0.7255 C.ar    1  UNL1        0.0553
     25 C          63.5280   93.6190    0.9466 C.ar    1  UNL1        0.0062
     26 C          64.5087   94.1678   -0.0471 C.ar    1  UNL1        0.0208
     27 C          64.0167   94.8975   -1.2618 C.ar    1  UNL1        0.0989
     28 N          62.5442   95.0784   -1.4828 N.ar    1  UNL1       -0.2422
     29 C          61.5636   94.5297   -0.4892 C.ar    1  UNL1        0.1019
     30 C          59.4552   87.8746    9.7958 C.3     1  UNL1        0.1021
     31 C          60.3824   88.0925   10.9546 C.3     1  UNL1        0.1269
     32 O          59.9135   88.8574   12.1567 O.3     1  UNL1       -0.3830
     33 H          58.9946   89.1381   12.0231 H       1  UNL1        0.2104
     34 C          61.7784   87.5454   10.9114 C.3     1  UNL1        0.0401
     35 C          62.4538   87.1125   12.1787 C.3     1  UNL1        0.0833
     36 C          63.2509   88.0997   12.9788 C.2     1  UNL1        0.2226
     37 O          64.2972   87.6164   13.9389 O.2     1  UNL1       -0.2751
     38 N          63.0018   89.5701   12.8188 N.am    1  UNL1       -0.2999
     39 H          62.3151   89.8873   12.1886 H       1  UNL1        0.1498
     40 C          63.7989   90.5573   13.6188 C.3     1  UNL1        0.1278
     41 C          64.6575   91.5697   12.9204 C.ar    1  UNL1        0.0320
     42 C          64.7190   91.5949   11.4218 C.ar    1  UNL1        0.0004
     43 C          65.5776   92.6073   10.7234 C.ar    1  UNL1       -0.0001
     44 C          66.3747   93.5945   11.5235 C.ar    1  UNL1        0.0031
     45 C          66.3132   93.5693   13.0219 C.ar    1  UNL1        0.0366
     46 C          65.4546   92.5569   13.7205 C.ar    1  UNL1        0.1362
     47 O          65.3930   92.5317   15.2190 O.3     1  UNL1       -0.4730
     48 C          64.5344   91.5193   15.9174 C.3     1  UNL1        0.2364
     49 C          63.7374   90.5321   15.1173 C.3     1  UNL1        0.1762
     50 O          62.8787   89.5197   15.8158 O.3     1  UNL1       -0.3788
     51 H          62.9526   89.6401   16.7755 H       1  UNL1        0.2106
     52 C          62.3322   85.6923   12.6461 C.3     1  UNL1        0.0355
     53 C          63.0819   84.6030   11.9381 C.ar    1  UNL1       -0.0217
     54 C          63.1018   84.5584   10.4389 C.ar    1  UNL1       -0.0043
     55 C          63.8515   83.4689    9.7308 C.ar    1  UNL1       -0.0003
     56 C          64.5812   82.4242   10.5220 C.ar    1  UNL1       -0.0000
     57 C          64.5612   82.4688   12.0212 C.ar    1  UNL1       -0.0003
     58 C          63.8116   83.5581   12.7293 C.ar    1  UNL1       -0.0043
@<TRIPOS>BOND
     1    16    17    1
     2    17    18    1
     3    17    19    1
     4    19    20   ar
     5    20    21   ar
     6    21    22   ar
     7    22    24    1
     8    24    25   ar
     9    25    26   ar
    10    26    27   ar
    11    27    28   ar
    12    28    29   ar
    13    22    23   ar
    14    17     1    1
    15     1     2    1
    16     2     3    1
    17     3     4    1
    18     4    30    1
    19    30    31    1
    20    31    32    1
    21    31    34    1
    22    35    34    1
    23    35    52    1
    24    52    53    1
    25    53    54   ar
    26    54    55   ar
    27    55    56   ar
    28    56    57   ar
    29    57    58   ar
    30    35    36    1
    31    36    37    2
    32    36    38   am
    33    40    38    1
    34    40    41    1
    35    41    42   ar
    36    42    43   ar
    37    43    44   ar
    38    44    45   ar
    39    45    46   ar
    40    46    47    1
    41    47    48    1
    42    48    49    1
    43    49    50    1
    44     4     5    1
    45     5     7    1
    46     7     8    2
    47     7     9   am
    48     9    11    1
    49    11    12    1
    50    12    13    1
    51    12    14    1
    52    12    15    1
    53     5     6    1
    54    23    19   ar
    55     6     1    1
    56    29    24   ar
    57    58    53   ar
    58    49    40    1
    59    46    41   ar
    60    32    33    1
    61    38    39    1
    62    50    51    1
    63     9    10    1
@<TRIPOS>MOLECULE
*****
 58 63 0 0 0
SMALL
GASTEIGER

@<TRIPOS>ATOM
      1 N          59.7854   90.4287    5.9997 N.3     1  UNL1       -0.2650
      2 C          59.4509   91.0829    7.3074 C.3     1  UNL1        0.0900
      3 C          59.3433   90.2556    8.5540 C.3     1  UNL1        0.0901
      4 N          59.5703   88.7742    8.4929 N.3     1  UNL1       -0.2621
      5 C          59.9048   88.1199    7.1852 C.3     1  UNL1        0.1510
      6 C          60.0124   88.9472    5.9385 C.3     1  UNL1        0.0980
      7 C          60.1318   86.6385    7.1241 C.2     1  UNL1        0.2386
      8 O          58.9614   85.7025    7.0592 O.2     1  UNL1       -0.2736
      9 N          61.5291   86.0930    7.1279 N.am    1  UNL1       -0.2961
     10 H          62.2973   86.7073    7.1705 H       1  UNL1        0.1497
     11 C          61.7561   84.6115    7.0668 C.3     1  UNL1        0.1939
     12 C          61.8894   83.9274    5.7386 C.3     1  UNL1        0.4154
     13 F          62.0228   83.2432    4.4104 F       1  UNL1       -0.1682
     14 F          63.2640   84.5060    5.5786 F       1  UNL1       -0.1682
     15 F          60.5148   83.3488    5.8987 F       1  UNL1       -0.1682
     16 C          61.3444   90.8951    4.6388 C.3     1  UNL1        0.0255
     17 C          59.8930   91.2560    4.7531 C.3     1  UNL1        0.1147
     18 C          58.4415   91.6168    4.8673 C.3     1  UNL1        0.0255
     19 C          60.0005   92.0833    3.5064 C.ar    1  UNL1        0.2185
     20 N          61.2488   92.7281    2.9811 N.ar    1  UNL1       -0.2094
     21 C          60.8985   93.4543    1.7163 C.ar    1  UNL1        0.1392
     22 C          59.4336   93.2583    1.4598 C.ar    1  UNL1        0.1674
     23 O          58.8786   92.4110    2.5662 O.2     1  UNL1       -0.4370
     24 C          58.6596   93.8124    0.3006 C.ar    1  UNL1        0.0553
     25 C          57.6967   92.9370   -0.4454 C.ar    1  UNL1        0.0062
     26 C          56.9226   93.4910   -1.6046 C.ar    1  UNL1        0.0208
     27 C          57.1115   94.9205   -2.0179 C.ar    1  UNL1        0.0989
     28 N          58.0744   95.7960   -1.2719 N.ar    1  UNL1       -0.2422
     29 C          58.8484   95.2419   -0.1127 C.ar    1  UNL1        0.1019
     30 C          59.4627   87.9469    9.7395 C.3     1  UNL1        0.1021
     31 C          60.4032   88.1878   10.8829 C.3     1  UNL1        0.1269
     32 O          59.9613   89.0100   12.0571 O.3     1  UNL1       -0.3830
     33 H          59.0484   89.3071   11.9184 H       1  UNL1        0.2104
     34 C          61.7856   87.6064   10.8522 C.3     1  UNL1        0.0401
     35 C          62.4436   87.1686   12.1271 C.3     1  UNL1        0.0833
     36 C          63.2504   88.1464   12.9289 C.2     1  UNL1        0.2226
     37 O          64.3131   87.6523   13.8652 O.2     1  UNL1       -0.2751
     38 N          62.9946   89.6183   12.7944 N.am    1  UNL1       -0.2999
     39 H          62.2971   89.9426   12.1799 H       1  UNL1        0.1498
     40 C          63.8014   90.5961   13.5962 C.3     1  UNL1        0.1278
     41 C          64.6672   91.6036   12.8995 C.ar    1  UNL1        0.0320
     42 C          64.7262   91.6332   11.4009 C.ar    1  UNL1        0.0004
     43 C          65.5920   92.6406   10.7042 C.ar    1  UNL1       -0.0001
     44 C          66.3988   93.6184   11.5060 C.ar    1  UNL1        0.0031
     45 C          66.3398   93.5889   13.0046 C.ar    1  UNL1        0.0366
     46 C          65.4740   92.5814   13.7013 C.ar    1  UNL1        0.1362
     47 O          65.4150   92.5518   15.1999 O.3     1  UNL1       -0.4730
     48 C          64.5492   91.5444   15.8966 C.3     1  UNL1        0.2364
     49 C          63.7424   90.5666   15.0948 C.3     1  UNL1        0.1762
     50 O          62.8765   89.5591   15.7916 O.3     1  UNL1       -0.3788
     51 H          62.9532   89.6758   16.7515 H       1  UNL1        0.2106
     52 C          62.2948   85.7529   12.6002 C.3     1  UNL1        0.0355
     53 C          63.0583   84.6524   11.9251 C.ar    1  UNL1       -0.0217
     54 C          63.8081   83.6461   12.7469 C.ar    1  UNL1       -0.0043
     55 C          64.5716   82.5455   12.0717 C.ar    1  UNL1       -0.0003
     56 C          64.5853   82.4512   10.5748 C.ar    1  UNL1       -0.0000
     57 C          63.8355   83.4574    9.7530 C.ar    1  UNL1       -0.0003
     58 C          63.0721   84.5580   10.4281 C.ar    1  UNL1       -0.0043
@<TRIPOS>BOND
     1    16    17    1
     2    17    18    1
     3    17    19    1
     4    19    20   ar
     5    20    21   ar
     6    21    22   ar
     7    22    24    1
     8    24    25   ar
     9    25    26   ar
    10    26    27   ar
    11    27    28   ar
    12    28    29   ar
    13    22    23   ar
    14    17     1    1
    15     1     2    1
    16     2     3    1
    17     3     4    1
    18     4    30    1
    19    30    31    1
    20    31    32    1
    21    31    34    1
    22    35    34    1
    23    35    52    1
    24    52    53    1
    25    53    54   ar
    26    54    55   ar
    27    55    56   ar
    28    56    57   ar
    29    57    58   ar
    30    35    36    1
    31    36    37    2
    32    36    38   am
    33    40    38    1
    34    40    41    1
    35    41    42   ar
    36    42    43   ar
    37    43    44   ar
    38    44    45   ar
    39    45    46   ar
    40    46    47    1
    41    47    48    1
    42    48    49    1
    43    49    50    1
    44     4     5    1
    45     5     7    1
    46     7     8    2
    47     7     9   am
    48     9    11    1
    49    11    12    1
    50    12    13    1
    51    12    14    1
    52    12    15    1
    53     5     6    1
    54    23    19   ar
    55     6     1    1
    56    29    24   ar
    57    58    53   ar
    58    49    40    1
    59    46    41   ar
    60    32    33    1
    61    38    39    1
    62    50    51    1
    63     9    10    1
@<TRIPOS>MOLECULE
*****
 58 63 0 0 0
SMALL
GASTEIGER

@<TRIPOS>ATOM
      1 N          62.0881   85.8758   11.0308 N.3     1  UNL1       -0.2650
      2 C          62.9444   86.9068   11.7044 C.3     1  UNL1        0.0900
      3 C          62.7768   88.3584   11.3657 C.3     1  UNL1        0.0901
      4 N          61.7529   88.7790   10.3534 N.3     1  UNL1       -0.2621
      5 C          60.8966   87.7480    9.6797 C.3     1  UNL1        0.1510
      6 C          61.0642   86.2963   10.0184 C.3     1  UNL1        0.0980
      7 C          59.8728   88.1685    8.6674 C.2     1  UNL1        0.2386
      8 O          58.5971   87.3926    8.5240 O.2     1  UNL1       -0.2736
      9 N          60.1246   89.3651    7.7985 N.am    1  UNL1       -0.2961
     10 H          60.9618   89.8744    7.8927 H       1  UNL1        0.1497
     11 C          59.1007   89.7857    6.7862 C.3     1  UNL1        0.1939
     12 C          59.4757   90.7417    5.6929 C.3     1  UNL1        0.4154
     13 F          59.8507   91.6977    4.5995 F       1  UNL1       -0.1682
     14 F          58.1173   91.3720    5.7780 F       1  UNL1       -0.1682
     15 F          60.8342   90.1113    5.6077 F       1  UNL1       -0.1682
     16 C          61.8626   84.7099   12.7886 C.3     1  UNL1        0.0255
     17 C          62.2557   84.4242   11.3695 C.3     1  UNL1        0.1147
     18 C          62.6489   84.1384    9.9504 C.3     1  UNL1        0.0255
     19 C          62.4233   82.9725   11.7082 C.ar    1  UNL1        0.2185
     20 N          62.3624   82.3751   13.0827 N.ar    1  UNL1       -0.2094
     21 C          62.5827   80.8968   12.9559 C.ar    1  UNL1        0.1392
     22 C          62.7798   80.5806   11.5029 C.ar    1  UNL1        0.1674
     23 O          62.6814   81.8634   10.7317 O.2     1  UNL1       -0.4370
     24 C          63.0313   79.2203   10.9229 C.ar    1  UNL1        0.0553
     25 C          63.6202   79.0877    9.5497 C.ar    1  UNL1        0.0062
     26 C          63.8717   77.7274    8.9696 C.ar    1  UNL1        0.0208
     27 C          63.5343   76.4998    9.7628 C.ar    1  UNL1        0.0989
     28 N          62.9454   76.6325   11.1360 N.ar    1  UNL1       -0.2422
     29 C          62.6939   77.9927   11.7160 C.ar    1  UNL1        0.1019
     30 C          61.5853   90.2306   10.0147 C.3     1  UNL1        0.1021
     31 C          62.6240   91.2251   10.4413 C.3     1  UNL1        0.1269
     32 O          63.5451   91.8306    9.4241 O.3     1  UNL1       -0.3830
     33 H          63.3367   91.4741    8.5464 H       1  UNL1        0.2104
     34 C          62.7416   91.6141   11.8852 C.3     1  UNL1        0.0401
     35 C          63.7511   90.9375   12.7644 C.3     1  UNL1        0.0833
     36 C          63.2992   89.9742   13.8217 C.2     1  UNL1        0.2226
     37 O          61.8466   89.8880   14.1863 O.2     1  UNL1       -0.2751
     38 N          64.2996   89.0970   14.5143 N.am    1  UNL1       -0.2999
     39 H          65.2529   89.1536   14.2749 H       1  UNL1        0.1498
     40 C          63.8476   88.1337   15.5715 C.3     1  UNL1        0.1278
     41 C          64.0776   86.6623   15.3932 C.ar    1  UNL1        0.0320
     42 C          64.7597   86.1540   14.1575 C.ar    1  UNL1        0.0004
     43 C          64.9897   84.6826   13.9792 C.ar    1  UNL1       -0.0001
     44 C          64.5377   83.7193   15.0364 C.ar    1  UNL1        0.0031
     45 C          63.8557   84.2274   16.2720 C.ar    1  UNL1        0.0366
     46 C          63.6257   85.6989   16.4504 C.ar    1  UNL1        0.1362
     47 O          62.9437   86.2071   17.6859 O.3     1  UNL1       -0.4730
     48 C          62.7137   87.6785   17.8643 C.3     1  UNL1        0.2364
     49 C          63.1656   88.6419   16.8070 C.3     1  UNL1        0.1762
     50 O          62.9356   90.1134   16.9854 O.3     1  UNL1       -0.3788
     51 H          62.4869   90.2703   17.8309 H       1  UNL1        0.2106
     52 C          65.2127   91.2242   12.5864 C.3     1  UNL1        0.0355
     53 C          66.0190   91.7514   13.7361 C.ar    1  UNL1       -0.0217
     54 C          67.5048   91.9073   13.6011 C.ar    1  UNL1       -0.0043
     55 C          68.3111   92.4345   14.7509 C.ar    1  UNL1       -0.0003
     56 C          67.6317   92.8058   16.0356 C.ar    1  UNL1       -0.0000
     57 C          66.1460   92.6499   16.1706 C.ar    1  UNL1       -0.0003
     58 C          65.3396   92.1227   15.0209 C.ar    1  UNL1       -0.0043
@<TRIPOS>BOND
     1    16    17    1
     2    17    18    1
     3    17    19    1
     4    19    20   ar
     5    20    21   ar
     6    21    22   ar
     7    22    24    1
     8    24    25   ar
     9    25    26   ar
    10    26    27   ar
    11    27    28   ar
    12    28    29   ar
    13    22    23   ar
    14    17     1    1
    15     1     2    1
    16     2     3    1
    17     3     4    1
    18     4    30    1
    19    30    31    1
    20    31    32    1
    21    31    34    1
    22    35    34    1
    23    35    52    1
    24    52    53    1
    25    53    54   ar
    26    54    55   ar
    27    55    56   ar
    28    56    57   ar
    29    57    58   ar
    30    35    36    1
    31    36    37    2
    32    36    38   am
    33    40    38    1
    34    40    41    1
    35    41    42   ar
    36    42    43   ar
    37    43    44   ar
    38    44    45   ar
    39    45    46   ar
    40    46    47    1
    41    47    48    1
    42    48    49    1
    43    49    50    1
    44     4     5    1
    45     5     7    1
    46     7     8    2
    47     7     9   am
    48     9    11    1
    49    11    12    1
    50    12    13    1
    51    12    14    1
    52    12    15    1
    53     5     6    1
    54    23    19   ar
    55     6     1    1
    56    29    24   ar
    57    58    53   ar
    58    49    40    1
    59    46    41   ar
    60    32    33    1
    61    38    39    1
    62    50    51    1
    63     9    10    1
@<TRIPOS>MOLECULE
*****
 58 63 0 0 0
SMALL
GASTEIGER

@<TRIPOS>ATOM
      1 N          60.1973   88.9259    8.1551 N.3     1  UNL1       -0.2650
      2 C          59.9186   89.3675    9.5612 C.3     1  UNL1        0.0900
      3 C          60.4300   88.5590   10.7166 C.3     1  UNL1        0.0901
      4 N          61.2201   87.3089   10.4658 N.3     1  UNL1       -0.2621
      5 C          61.4988   86.8672    9.0596 C.3     1  UNL1        0.1510
      6 C          60.9874   87.6757    7.9042 C.3     1  UNL1        0.0980
      7 C          62.2889   85.6171    8.8088 C.2     1  UNL1        0.2386
      8 O          62.3385   85.0249    7.4316 O.2     1  UNL1       -0.2736
      9 N          63.0294   84.9592    9.9353 N.am    1  UNL1       -0.2961
     10 H          62.9968   85.3479   10.8392 H       1  UNL1        0.1497
     11 C          63.8195   83.7091    9.6845 C.3     1  UNL1        0.1939
     12 C          63.4278   82.4268   10.3569 C.3     1  UNL1        0.4154
     13 F          63.0361   81.1444   11.0294 F       1  UNL1       -0.1682
     14 F          64.5148   81.7062    9.6160 F       1  UNL1       -0.1682
     15 F          62.3408   83.1474   11.0979 F       1  UNL1       -0.1682
     16 C          60.8083   90.7117    7.1868 C.3     1  UNL1        0.0255
     17 C          59.6859   89.7344    6.9997 C.3     1  UNL1        0.1147
     18 C          58.5635   88.7571    6.8126 C.3     1  UNL1        0.0255
     19 C          59.1745   90.5429    5.8444 C.ar    1  UNL1        0.2185
     20 N          57.7335   90.8074    5.5226 N.ar    1  UNL1       -0.2094
     21 C          57.6827   91.6568    4.2873 C.ar    1  UNL1        0.1392
     22 C          59.0924   91.9172    3.8456 C.ar    1  UNL1        0.1674
     23 O          60.0144   91.2288    4.8079 O.2     1  UNL1       -0.4370
     24 C          59.5072   92.7244    2.6513 C.ar    1  UNL1        0.0553
     25 C          60.7422   93.5736    2.7122 C.ar    1  UNL1        0.0062
     26 C          61.1570   94.3808    1.5179 C.ar    1  UNL1        0.0208
     27 C          60.3370   94.3386    0.2627 C.ar    1  UNL1        0.0989
     28 N          59.1020   93.4894    0.2017 N.ar    1  UNL1       -0.2422
     29 C          58.6872   92.6822    1.3960 C.ar    1  UNL1        0.1019
     30 C          61.7314   86.5004   11.6211 C.3     1  UNL1        0.1021
     31 C          62.9221   86.9752   12.4001 C.3     1  UNL1        0.1269
     32 O          63.2076   88.4434   12.5129 O.3     1  UNL1       -0.3830
     33 H          62.5314   88.9424   12.0285 H       1  UNL1        0.2104
     34 C          63.8273   85.9818   13.0662 C.3     1  UNL1        0.0401
     35 C          64.0296   86.0298   14.5517 C.3     1  UNL1        0.0833
     36 C          64.0134   87.3473   15.2687 C.2     1  UNL1        0.2226
     37 O          63.6019   87.4119   16.7097 O.2     1  UNL1       -0.2751
     38 N          64.4087   88.6000   14.5446 N.am    1  UNL1       -0.2999
     39 H          64.6788   88.5576   13.5989 H       1  UNL1        0.1498
     40 C          64.3924   89.9175   15.2616 C.3     1  UNL1        0.1278
     41 C          65.5346   90.8756   15.0960 C.ar    1  UNL1        0.0320
     42 C          66.6932   90.5162   14.2135 C.ar    1  UNL1        0.0004
     43 C          67.8354   91.4743   14.0480 C.ar    1  UNL1       -0.0001
     44 C          67.8191   92.7917   14.7649 C.ar    1  UNL1        0.0031
     45 C          66.6607   93.1511   15.6474 C.ar    1  UNL1        0.0366
     46 C          65.5184   92.1931   15.8130 C.ar    1  UNL1        0.1362
     47 O          64.3600   92.5525   16.6955 O.3     1  UNL1       -0.4730
     48 C          63.2178   91.5944   16.8610 C.3     1  UNL1        0.2364
     49 C          63.2340   90.2769   16.1441 C.3     1  UNL1        0.1762
     50 O          62.0917   89.3188   16.3097 O.3     1  UNL1       -0.3788
     51 H          61.4320   89.7026   16.9083 H       1  UNL1        0.2106
     52 C          64.2482   84.7603   15.3204 C.3     1  UNL1        0.0355
     53 C          63.6535   83.4740   14.8287 C.ar    1  UNL1       -0.0217
     54 C          62.1772   83.2367   14.9471 C.ar    1  UNL1       -0.0043
     55 C          61.5825   81.9503   14.4554 C.ar    1  UNL1       -0.0003
     56 C          62.4642   80.9014   13.8453 C.ar    1  UNL1       -0.0000
     57 C          63.9405   81.1387   13.7269 C.ar    1  UNL1       -0.0003
     58 C          64.5352   82.4250   14.2186 C.ar    1  UNL1       -0.0043
@<TRIPOS>BOND
     1    16    17    1
     2    17    18    1
     3    17    19    1
     4    19    20   ar
     5    20    21   ar
     6    21    22   ar
     7    22    24    1
     8    24    25   ar
     9    25    26   ar
    10    26    27   ar
    11    27    28   ar
    12    28    29   ar
    13    22    23   ar
    14    17     1    1
    15     1     2    1
    16     2     3    1
    17     3     4    1
    18     4    30    1
    19    30    31    1
    20    31    32    1
    21    31    34    1
    22    35    34    1
    23    35    52    1
    24    52    53    1
    25    53    54   ar
    26    54    55   ar
    27    55    56   ar
    28    56    57   ar
    29    57    58   ar
    30    35    36    1
    31    36    37    2
    32    36    38   am
    33    40    38    1
    34    40    41    1
    35    41    42   ar
    36    42    43   ar
    37    43    44   ar
    38    44    45   ar
    39    45    46   ar
    40    46    47    1
    41    47    48    1
    42    48    49    1
    43    49    50    1
    44     4     5    1
    45     5     7    1
    46     7     8    2
    47     7     9   am
    48     9    11    1
    49    11    12    1
    50    12    13    1
    51    12    14    1
    52    12    15    1
    53     5     6    1
    54    23    19   ar
    55     6     1    1
    56    29    24   ar
    57    58    53   ar
    58    49    40    1
    59    46    41   ar
    60    32    33    1
    61    38    39    1
    62    50    51    1
    63     9    10    1
@<TRIPOS>MOLECULE
*****
 58 63 0 0 0
SMALL
GASTEIGER

@<TRIPOS>ATOM
      1 N          59.8845   90.4106    6.0936 N.3     1  UNL1       -0.2650
      2 C          59.6407   91.0897    7.4087 C.3     1  UNL1        0.0900
      3 C          59.5822   90.2812    8.6708 C.3     1  UNL1        0.0901
      4 N          59.7675   88.7936    8.6178 N.3     1  UNL1       -0.2621
      5 C          60.0113   88.1145    7.3028 C.3     1  UNL1        0.1510
      6 C          60.0698   88.9230    6.0406 C.3     1  UNL1        0.0980
      7 C          60.1966   86.6270    7.2498 C.2     1  UNL1        0.2386
      8 O          59.0006   85.7217    7.2481 O.2     1  UNL1       -0.2736
      9 N          61.5781   86.0446    7.1986 N.am    1  UNL1       -0.2961
     10 H          62.3631   86.6387    7.1997 H       1  UNL1        0.1497
     11 C          61.7634   84.5570    7.1457 C.3     1  UNL1        0.1939
     12 C          61.9078   83.8659    5.8223 C.3     1  UNL1        0.4154
     13 F          62.0523   83.1747    4.4988 F       1  UNL1       -0.1682
     14 F          63.2840   84.4431    5.6710 F       1  UNL1       -0.1682
     15 F          60.5317   83.2886    5.9735 F       1  UNL1       -0.1682
     16 C          61.4093   90.9260    4.7118 C.3     1  UNL1        0.0255
     17 C          59.9430   91.2191    4.8315 C.3     1  UNL1        0.1147
     18 C          58.4768   91.5121    4.9512 C.3     1  UNL1        0.0255
     19 C          60.0015   92.0276    3.5694 C.ar    1  UNL1        0.2185
     20 N          58.8333   92.6586    2.8715 N.ar    1  UNL1       -0.2094
     21 C          59.3483   93.3680    1.6544 C.ar    1  UNL1        0.1392
     22 C          60.8349   93.1754    1.5999 C.ar    1  UNL1        0.1674
     23 O          61.2387   92.3470    2.7835 O.2     1  UNL1       -0.4370
     24 C          61.7560   93.7163    0.5469 C.ar    1  UNL1        0.0553
     25 C          61.6945   93.1779   -0.8518 C.ar    1  UNL1        0.0062
     26 C          62.6157   93.7188   -1.9049 C.ar    1  UNL1        0.0208
     27 C          63.5984   94.7980   -1.5592 C.ar    1  UNL1        0.0989
     28 N          63.6599   95.3364   -0.1605 N.ar    1  UNL1       -0.2422
     29 C          62.7387   94.7956    0.8926 C.ar    1  UNL1        0.1019
     30 C          59.7090   87.9852    9.8800 C.3     1  UNL1        0.1021
     31 C          60.4044   88.4732   11.1162 C.3     1  UNL1        0.1269
     32 O          59.7191   88.3825   12.4474 O.3     1  UNL1       -0.3830
     33 H          58.8407   87.9875   12.3326 H       1  UNL1        0.2104
     34 C          61.7850   89.0519   11.0212 C.3     1  UNL1        0.0401
     35 C          62.6482   89.1374   12.2449 C.3     1  UNL1        0.0833
     36 C          63.2292   87.8899   12.8415 C.2     1  UNL1        0.2226
     37 O          64.4278   87.9758   13.7395 O.2     1  UNL1       -0.2751
     38 N          62.6118   86.5565   12.5403 N.am    1  UNL1       -0.2999
     39 H          61.8252   86.5001   11.9510 H       1  UNL1        0.1498
     40 C          63.1929   85.3090   13.1370 C.3     1  UNL1        0.1278
     41 C          63.5372   84.1456   12.2549 C.ar    1  UNL1        0.0320
     42 C          63.3003   84.2298   10.7760 C.ar    1  UNL1        0.0004
     43 C          63.6446   83.0665    9.8940 C.ar    1  UNL1       -0.0001
     44 C          64.2256   81.8189   10.4906 C.ar    1  UNL1        0.0031
     45 C          64.4625   81.7347   11.9694 C.ar    1  UNL1        0.0366
     46 C          64.1182   82.8981   12.8516 C.ar    1  UNL1        0.1362
     47 O          64.3551   82.8139   14.3303 O.3     1  UNL1       -0.4730
     48 C          64.0108   83.9772   15.2124 C.3     1  UNL1        0.2364
     49 C          63.4297   85.2247   14.6157 C.3     1  UNL1        0.1762
     50 O          63.0855   86.3881   15.4979 O.3     1  UNL1       -0.3788
     51 H          63.2992   86.1701   16.4186 H       1  UNL1        0.2106
     52 C          62.9303   90.4706   12.8720 C.3     1  UNL1        0.0355
     53 C          64.1484   91.2469   12.4676 C.ar    1  UNL1       -0.0217
     54 C          64.2753   91.7671   11.0664 C.ar    1  UNL1       -0.0043
     55 C          65.4935   92.5434   10.6621 C.ar    1  UNL1       -0.0003
     56 C          66.5847   92.7995   11.6589 C.ar    1  UNL1       -0.0000
     57 C          66.4578   92.2793   13.0600 C.ar    1  UNL1       -0.0003
     58 C          65.2397   91.5030   13.4644 C.ar    1  UNL1       -0.0043
@<TRIPOS>BOND
     1    16    17    1
     2    17    18    1
     3    17    19    1
     4    19    20   ar
     5    20    21   ar
     6    21    22   ar
     7    22    24    1
     8    24    25   ar
     9    25    26   ar
    10    26    27   ar
    11    27    28   ar
    12    28    29   ar
    13    22    23   ar
    14    17     1    1
    15     1     2    1
    16     2     3    1
    17     3     4    1
    18     4    30    1
    19    30    31    1
    20    31    32    1
    21    31    34    1
    22    35    34    1
    23    35    52    1
    24    52    53    1
    25    53    54   ar
    26    54    55   ar
    27    55    56   ar
    28    56    57   ar
    29    57    58   ar
    30    35    36    1
    31    36    37    2
    32    36    38   am
    33    40    38    1
    34    40    41    1
    35    41    42   ar
    36    42    43   ar
    37    43    44   ar
    38    44    45   ar
    39    45    46   ar
    40    46    47    1
    41    47    48    1
    42    48    49    1
    43    49    50    1
    44     4     5    1
    45     5     7    1
    46     7     8    2
    47     7     9   am
    48     9    11    1
    49    11    12    1
    50    12    13    1
    51    12    14    1
    52    12    15    1
    53     5     6    1
    54    23    19   ar
    55     6     1    1
    56    29    24   ar
    57    58    53   ar
    58    49    40    1
    59    46    41   ar
    60    32    33    1
    61    38    39    1
    62    50    51    1
    63     9    10    1
@<TRIPOS>MOLECULE
*****
 58 63 0 0 0
SMALL
GASTEIGER

@<TRIPOS>ATOM
      1 N          59.9252   89.7556    7.4055 N.3     1  UNL1       -0.2650
      2 C          59.7940   90.4464    8.7305 C.3     1  UNL1        0.0900
      3 C          60.1832   89.7318    9.9906 C.3     1  UNL1        0.0901
      4 N          60.7035   88.3265    9.9258 N.3     1  UNL1       -0.2621
      5 C          60.8347   87.6356    8.6007 C.3     1  UNL1        0.1510
      6 C          60.4455   88.3502    7.3406 C.3     1  UNL1        0.0980
      7 C          61.3550   86.2303    8.5359 C.2     1  UNL1        0.2386
      8 O          60.6076   85.1890    7.7566 O.2     1  UNL1       -0.2736
      9 N          62.6228   85.8662    9.2503 N.am    1  UNL1       -0.2961
     10 H          63.1133   86.5496    9.7617 H       1  UNL1        0.1497
     11 C          63.1431   84.4609    9.1854 C.3     1  UNL1        0.1939
     12 C          63.4929   83.7316   10.4486 C.3     1  UNL1        0.4154
     13 F          63.8427   83.0023   11.7119 F       1  UNL1       -0.1682
     14 F          64.4955   82.9083    9.6958 F       1  UNL1       -0.1682
     15 F          62.4902   84.5549   11.2015 F       1  UNL1       -0.1682
     16 C          60.9781   90.7849    5.8784 C.3     1  UNL1        0.0255
     17 C          59.5360   90.4702    6.1454 C.3     1  UNL1        0.1147
     18 C          58.0939   90.1556    6.4123 C.3     1  UNL1        0.0255
     19 C          59.1468   91.1848    4.8853 C.ar    1  UNL1        0.2185
     20 N          57.7500   91.5357    4.4661 N.ar    1  UNL1       -0.2094
     21 C          57.8260   92.2417    3.1448 C.ar    1  UNL1        0.1392
     22 C          59.2699   92.3272    2.7474 C.ar    1  UNL1        0.1674
     23 O          60.0863   91.6740    3.8230 O.2     1  UNL1       -0.4370
     24 C          59.8037   92.9556    1.4943 C.ar    1  UNL1        0.0553
     25 C          58.8646   93.3434    0.3908 C.ar    1  UNL1        0.0062
     26 C          59.3985   93.9718   -0.8622 C.ar    1  UNL1        0.0208
     27 C          60.8715   94.2124   -1.0117 C.ar    1  UNL1        0.0989
     28 N          61.8106   93.8246    0.0918 N.ar    1  UNL1       -0.2422
     29 C          61.2767   93.1962    1.3448 C.ar    1  UNL1        0.1019
     30 C          61.0927   87.6119   11.1859 C.3     1  UNL1        0.1021
     31 C          61.8617   88.3353   12.2514 C.3     1  UNL1        0.1269
     32 O          61.3043   89.5885   12.8586 O.3     1  UNL1       -0.3830
     33 H          60.4466   89.7905   12.4531 H       1  UNL1        0.2104
     34 C          63.1881   87.8054   12.7096 C.3     1  UNL1        0.0401
     35 C          63.8812   88.4322   13.8829 C.3     1  UNL1        0.0833
     36 C          64.2489   89.8860   13.8480 C.2     1  UNL1        0.2226
     37 O          63.4370   90.8837   14.6198 O.2     1  UNL1       -0.2751
     38 N          65.4283   90.3421   13.0413 N.am    1  UNL1       -0.2999
     39 H          65.9611   89.6873   12.5347 H       1  UNL1        0.1498
     40 C          65.7960   91.7960   13.0063 C.3     1  UNL1        0.1278
     41 C          66.6673   92.3753   14.0810 C.ar    1  UNL1        0.0320
     42 C          67.1711   91.5007   15.1908 C.ar    1  UNL1        0.0004
     43 C          68.0425   92.0800   16.2655 C.ar    1  UNL1       -0.0001
     44 C          68.4102   93.5339   16.2305 C.ar    1  UNL1        0.0031
     45 C          67.9064   94.4084   15.1209 C.ar    1  UNL1        0.0366
     46 C          67.0350   93.8291   14.0461 C.ar    1  UNL1        0.1362
     47 O          66.5313   94.7036   12.9364 O.3     1  UNL1       -0.4730
     48 C          65.6599   94.1243   11.8617 C.3     1  UNL1        0.2364
     49 C          65.2922   92.6705   11.8967 C.3     1  UNL1        0.1762
     50 O          64.4208   92.0912   10.8219 O.3     1  UNL1       -0.3788
     51 H          64.1850   92.7859   10.1873 H       1  UNL1        0.2106
     52 C          64.2068   87.6051   15.0913 C.3     1  UNL1        0.0355
     53 C          64.0576   86.1134   15.0415 C.ar    1  UNL1       -0.0217
     54 C          62.8353   85.4622   15.6177 C.ar    1  UNL1       -0.0043
     55 C          62.6862   83.9704   15.5679 C.ar    1  UNL1       -0.0003
     56 C          63.7593   83.1299   14.9418 C.ar    1  UNL1       -0.0000
     57 C          64.9816   83.7811   14.3656 C.ar    1  UNL1       -0.0003
     58 C          65.1307   85.2728   14.4154 C.ar    1  UNL1       -0.0043
@<TRIPOS>BOND
     1    16    17    1
     2    17    18    1
     3    17    19    1
     4    19    20   ar
     5    20    21   ar
     6    21    22   ar
     7    22    24    1
     8    24    25   ar
     9    25    26   ar
    10    26    27   ar
    11    27    28   ar
    12    28    29   ar
    13    22    23   ar
    14    17     1    1
    15     1     2    1
    16     2     3    1
    17     3     4    1
    18     4    30    1
    19    30    31    1
    20    31    32    1
    21    31    34    1
    22    35    34    1
    23    35    52    1
    24    52    53    1
    25    53    54   ar
    26    54    55   ar
    27    55    56   ar
    28    56    57   ar
    29    57    58   ar
    30    35    36    1
    31    36    37    2
    32    36    38   am
    33    40    38    1
    34    40    41    1
    35    41    42   ar
    36    42    43   ar
    37    43    44   ar
    38    44    45   ar
    39    45    46   ar
    40    46    47    1
    41    47    48    1
    42    48    49    1
    43    49    50    1
    44     4     5    1
    45     5     7    1
    46     7     8    2
    47     7     9   am
    48     9    11    1
    49    11    12    1
    50    12    13    1
    51    12    14    1
    52    12    15    1
    53     5     6    1
    54    23    19   ar
    55     6     1    1
    56    29    24   ar
    57    58    53   ar
    58    49    40    1
    59    46    41   ar
    60    32    33    1
    61    38    39    1
    62    50    51    1
    63     9    10    1
@<TRIPOS>MOLECULE
*****
 58 63 0 0 0
SMALL
GASTEIGER

@<TRIPOS>ATOM
      1 N          62.1232   85.4592   10.8190 N.3     1  UNL1       -0.2650
      2 C          62.9419   86.4945   11.5318 C.3     1  UNL1        0.0900
      3 C          62.7499   87.9487   11.2184 C.3     1  UNL1        0.0901
      4 N          61.7393   88.3678   10.1922 N.3     1  UNL1       -0.2621
      5 C          60.9205   87.3325    9.4795 C.3     1  UNL1        0.1510
      6 C          61.1125   85.8782    9.7928 C.3     1  UNL1        0.0980
      7 C          59.9099   87.7516    8.4533 C.2     1  UNL1        0.2386
      8 O          58.7050   86.8965    8.1945 O.2     1  UNL1       -0.2736
      9 N          60.1042   89.0258    7.6860 N.am    1  UNL1       -0.2961
     10 H          60.8950   89.5870    7.8558 H       1  UNL1        0.1497
     11 C          59.0935   89.4448    6.6599 C.3     1  UNL1        0.1939
     12 C          59.3928   90.5875    5.7355 C.3     1  UNL1        0.4154
     13 F          59.6922   91.7303    4.8110 F       1  UNL1       -0.1682
     14 F          60.8110   90.1151    5.6106 F       1  UNL1       -0.1682
     15 F          57.9747   91.0600    5.8603 F       1  UNL1       -0.1682
     16 C          62.7663   83.7607    9.7228 C.3     1  UNL1        0.0255
     17 C          62.3152   84.0049   11.1324 C.3     1  UNL1        0.1147
     18 C          61.8641   84.2492   12.5420 C.3     1  UNL1        0.0255
     19 C          62.5072   82.5507   11.4458 C.ar    1  UNL1        0.2185
     20 N          62.4432   81.9264   12.8082 N.ar    1  UNL1       -0.2094
     21 C          62.6933   80.4552   12.6563 C.ar    1  UNL1        0.1392
     22 C          62.9119   80.1702   11.1999 C.ar    1  UNL1        0.1674
     23 O          62.7969   81.4653   10.4517 O.2     1  UNL1       -0.4370
     24 C          63.1957   78.8262   10.5974 C.ar    1  UNL1        0.0553
     25 C          63.9701   78.7268    9.3166 C.ar    1  UNL1        0.0062
     26 C          64.2539   77.3828    8.7140 C.ar    1  UNL1        0.0208
     27 C          63.7632   76.1381    9.3923 C.ar    1  UNL1        0.0989
     28 N          62.9888   76.2375   10.6731 N.ar    1  UNL1       -0.2422
     29 C          62.7050   77.5815   11.2756 C.ar    1  UNL1        0.1019
     30 C          61.5473   89.8221    9.8789 C.3     1  UNL1        0.1021
     31 C          62.0082   90.8662   10.8521 C.3     1  UNL1        0.1269
     32 O          61.0042   91.6325   11.6613 O.3     1  UNL1       -0.3830
     33 H          60.1099   91.3323   11.4353 H       1  UNL1        0.2104
     34 C          63.4730   91.1441   11.0163 C.3     1  UNL1        0.0401
     35 C          64.0849   91.1580   12.3857 C.3     1  UNL1        0.0833
     36 C          63.5461   90.2571   13.4571 C.2     1  UNL1        0.2226
     37 O          62.0670   90.1730   13.6925 O.2     1  UNL1       -0.2751
     38 N          64.4863   89.4404   14.2932 N.am    1  UNL1       -0.2999
     39 H          65.4570   89.4956   14.1387 H       1  UNL1        0.1498
     40 C          63.9474   88.5395   15.3646 C.3     1  UNL1        0.1278
     41 C          64.1053   87.0528   15.2439 C.ar    1  UNL1        0.0320
     42 C          64.8020   86.4668   14.0517 C.ar    1  UNL1        0.0004
     43 C          64.9598   84.9801   13.9309 C.ar    1  UNL1       -0.0001
     44 C          64.4210   84.0792   15.0024 C.ar    1  UNL1        0.0031
     45 C          63.7243   84.6650   16.1946 C.ar    1  UNL1        0.0366
     46 C          63.5664   86.1518   16.3154 C.ar    1  UNL1        0.1362
     47 O          62.8698   86.7377   17.5076 O.3     1  UNL1       -0.4730
     48 C          62.7119   88.2244   17.6283 C.3     1  UNL1        0.2364
     49 C          63.2507   89.1253   16.5568 C.3     1  UNL1        0.1762
     50 O          63.0929   90.6122   16.6776 O.3     1  UNL1       -0.3788
     51 H          62.6239   90.8217   17.5005 H       1  UNL1        0.2106
     52 C          65.2357   92.0729   12.6837 C.3     1  UNL1        0.0355
     53 C          65.9800   92.7323   11.5606 C.ar    1  UNL1       -0.0217
     54 C          67.0956   92.0044   10.8709 C.ar    1  UNL1       -0.0043
     55 C          67.8398   92.6639    9.7478 C.ar    1  UNL1       -0.0003
     56 C          67.4685   94.0511    9.3145 C.ar    1  UNL1       -0.0000
     57 C          66.3529   94.7789   10.0042 C.ar    1  UNL1       -0.0003
     58 C          65.6087   94.1195   11.1273 C.ar    1  UNL1       -0.0043
@<TRIPOS>BOND
     1    16    17    1
     2    17    18    1
     3    17    19    1
     4    19    20   ar
     5    20    21   ar
     6    21    22   ar
     7    22    24    1
     8    24    25   ar
     9    25    26   ar
    10    26    27   ar
    11    27    28   ar
    12    28    29   ar
    13    22    23   ar
    14    17     1    1
    15     1     2    1
    16     2     3    1
    17     3     4    1
    18     4    30    1
    19    30    31    1
    20    31    32    1
    21    31    34    1
    22    35    34    1
    23    35    52    1
    24    52    53    1
    25    53    54   ar
    26    54    55   ar
    27    55    56   ar
    28    56    57   ar
    29    57    58   ar
    30    35    36    1
    31    36    37    2
    32    36    38   am
    33    40    38    1
    34    40    41    1
    35    41    42   ar
    36    42    43   ar
    37    43    44   ar
    38    44    45   ar
    39    45    46   ar
    40    46    47    1
    41    47    48    1
    42    48    49    1
    43    49    50    1
    44     4     5    1
    45     5     7    1
    46     7     8    2
    47     7     9   am
    48     9    11    1
    49    11    12    1
    50    12    13    1
    51    12    14    1
    52    12    15    1
    53     5     6    1
    54    23    19   ar
    55     6     1    1
    56    29    24   ar
    57    58    53   ar
    58    49    40    1
    59    46    41   ar
    60    32    33    1
    61    38    39    1
    62    50    51    1
    63     9    10    1
@<TRIPOS>MOLECULE
*****
 58 63 0 0 0
SMALL
GASTEIGER

@<TRIPOS>ATOM
      1 N          62.0604   92.5021    1.5875 N.3     1  UNL1       -0.2650
      2 C          63.1059   91.6952    2.2985 C.3     1  UNL1        0.0900
      3 C          62.8456   91.1852    3.6850 C.3     1  UNL1        0.0901
      4 N          61.5396   91.4822    4.3604 N.3     1  UNL1       -0.2621
      5 C          60.4939   92.2892    3.6493 C.3     1  UNL1        0.1510
      6 C          60.7543   92.7991    2.2629 C.3     1  UNL1        0.0980
      7 C          59.1880   92.5862    4.3247 C.2     1  UNL1        0.2386
      8 O          59.0548   93.7966    5.2006 O.2     1  UNL1       -0.2736
      9 N          58.0151   91.6728    4.1243 N.am    1  UNL1       -0.2961
     10 H          58.1025   90.8783    3.5495 H       1  UNL1        0.1497
     11 C          56.7092   91.9698    4.7997 C.3     1  UNL1        0.1939
     12 C          55.9790   90.8828    5.5313 C.3     1  UNL1        0.4154
     13 F          55.2487   89.7958    6.2629 F       1  UNL1       -0.1682
     14 F          54.6697   91.5209    5.1726 F       1  UNL1       -0.1682
     15 F          57.2882   90.2448    5.8901 F       1  UNL1       -0.1682
     16 C          63.5910   93.6533    0.6755 C.3     1  UNL1        0.0255
     17 C          62.3207   93.0120    0.2011 C.3     1  UNL1        0.1147
     18 C          61.0505   92.3707   -0.2734 C.3     1  UNL1        0.0255
     19 C          62.5811   93.5219   -1.1854 C.ar    1  UNL1        0.2185
     20 N          61.7875   94.5744   -1.9012 N.ar    1  UNL1       -0.2094
     21 C          62.3967   94.7718   -3.2577 C.ar    1  UNL1        0.1392
     22 C          63.5669   93.8414   -3.3801 C.ar    1  UNL1        0.1674
     23 O          63.6809   93.0689   -2.0994 O.2     1  UNL1       -0.4370
     24 C          64.4654   93.7070   -4.5737 C.ar    1  UNL1        0.0553
     25 C          64.9345   94.9321   -5.3010 C.ar    1  UNL1        0.0062
     26 C          65.8330   94.7978   -6.4946 C.ar    1  UNL1        0.0208
     27 C          66.2623   93.4383   -6.9609 C.ar    1  UNL1        0.0989
     28 N          65.7932   92.2131   -6.2335 N.ar    1  UNL1       -0.2422
     29 C          64.8947   92.3475   -5.0399 C.ar    1  UNL1        0.1019
     30 C          61.2792   90.9723    5.7468 C.3     1  UNL1        0.1021
     31 C          60.1475   90.0198    5.9953 C.3     1  UNL1        0.1269
     32 O          59.6972   89.0901    4.9078 O.3     1  UNL1       -0.3830
     33 H          60.2384   89.2330    4.1156 H       1  UNL1        0.2104
     34 C          59.4661   89.9970    7.3314 C.3     1  UNL1        0.0401
     35 C          59.9084   89.0224    8.3824 C.3     1  UNL1        0.0833
     36 C          60.6862   89.5033    9.5714 C.2     1  UNL1        0.2226
     37 O          60.0763   90.4978   10.5144 O.2     1  UNL1       -0.2751
     38 N          62.0739   88.9897    9.8175 N.am    1  UNL1       -0.2999
     39 H          62.4742   88.3371    9.1986 H       1  UNL1        0.1498
     40 C          62.8517   89.4706   11.0065 C.3     1  UNL1        0.1278
     41 C          63.2097   88.5143   12.1052 C.ar    1  UNL1        0.0320
     42 C          62.7897   87.0771   12.0150 C.ar    1  UNL1        0.0004
     43 C          63.1477   86.1208   13.1138 C.ar    1  UNL1       -0.0001
     44 C          63.9255   86.6016   14.3028 C.ar    1  UNL1        0.0031
     45 C          64.3454   88.0388   14.3930 C.ar    1  UNL1        0.0366
     46 C          63.9875   88.9952   13.2942 C.ar    1  UNL1        0.1362
     47 O          64.4074   90.4323   13.3845 O.3     1  UNL1       -0.4730
     48 C          64.0495   91.3886   12.2857 C.3     1  UNL1        0.2364
     49 C          63.2716   90.9078   11.0967 C.3     1  UNL1        0.1762
     50 O          62.9137   91.8642    9.9979 O.3     1  UNL1       -0.3788
     51 H          63.2582   92.7454   10.2114 H       1  UNL1        0.2106
     52 C          59.5729   87.5669    8.2444 C.3     1  UNL1        0.0355
     53 C          60.6542   86.5738    7.9372 C.ar    1  UNL1       -0.0217
     54 C          60.5214   85.6626    6.7531 C.ar    1  UNL1       -0.0043
     55 C          61.6028   84.6695    6.4459 C.ar    1  UNL1       -0.0003
     56 C          62.8170   84.5876    7.3228 C.ar    1  UNL1       -0.0000
     57 C          62.9499   85.4988    8.5068 C.ar    1  UNL1       -0.0003
     58 C          61.8685   86.4919    8.8141 C.ar    1  UNL1       -0.0043
@<TRIPOS>BOND
     1    16    17    1
     2    17    18    1
     3    17    19    1
     4    19    20   ar
     5    20    21   ar
     6    21    22   ar
     7    22    24    1
     8    24    25   ar
     9    25    26   ar
    10    26    27   ar
    11    27    28   ar
    12    28    29   ar
    13    22    23   ar
    14    17     1    1
    15     1     2    1
    16     2     3    1
    17     3     4    1
    18     4    30    1
    19    30    31    1
    20    31    32    1
    21    31    34    1
    22    35    34    1
    23    35    52    1
    24    52    53    1
    25    53    54   ar
    26    54    55   ar
    27    55    56   ar
    28    56    57   ar
    29    57    58   ar
    30    35    36    1
    31    36    37    2
    32    36    38   am
    33    40    38    1
    34    40    41    1
    35    41    42   ar
    36    42    43   ar
    37    43    44   ar
    38    44    45   ar
    39    45    46   ar
    40    46    47    1
    41    47    48    1
    42    48    49    1
    43    49    50    1
    44     4     5    1
    45     5     7    1
    46     7     8    2
    47     7     9   am
    48     9    11    1
    49    11    12    1
    50    12    13    1
    51    12    14    1
    52    12    15    1
    53     5     6    1
    54    23    19   ar
    55     6     1    1
    56    29    24   ar
    57    58    53   ar
    58    49    40    1
    59    46    41   ar
    60    32    33    1
    61    38    39    1
    62    50    51    1
    63     9    10    1
@<TRIPOS>MOLECULE
*****
 58 63 0 0 0
SMALL
GASTEIGER

@<TRIPOS>ATOM
      1 N          61.9476   89.5333   10.3188 N.3     1  UNL1       -0.2650
      2 C          61.2494   90.7161    9.7160 C.3     1  UNL1        0.0900
      3 C          60.3932   90.5406    8.4969 C.3     1  UNL1        0.0901
      4 N          60.2352   89.1823    7.8806 N.3     1  UNL1       -0.2621
      5 C          60.9334   87.9993    8.4834 C.3     1  UNL1        0.1510
      6 C          61.7896   88.1748    9.7024 C.3     1  UNL1        0.0980
      7 C          60.7754   86.6410    7.8670 C.2     1  UNL1        0.2386
      8 O          59.4193   86.1658    7.4366 O.2     1  UNL1       -0.2736
      9 N          61.9735   85.7577    7.6812 N.am    1  UNL1       -0.2961
     10 H          62.8636   86.0696    7.9637 H       1  UNL1        0.1497
     11 C          61.8155   84.3994    7.0648 C.3     1  UNL1        0.1939
     12 C          61.7680   84.2538    5.5727 C.3     1  UNL1        0.4154
     13 F          61.7203   84.1082    4.0805 F       1  UNL1       -0.1682
     14 F          60.3628   83.7376    5.6679 F       1  UNL1       -0.1682
     15 F          63.1731   84.7700    5.4775 F       1  UNL1       -0.1682
     16 C          62.6200   88.2589   11.8756 C.3     1  UNL1        0.0255
     17 C          62.8038   89.7088   11.5378 C.3     1  UNL1        0.1147
     18 C          62.9875   91.1587   11.2001 C.3     1  UNL1        0.0255
     19 C          63.6599   89.8843   12.7569 C.ar    1  UNL1        0.2185
     20 N          63.6129   89.0406   13.9963 N.ar    1  UNL1       -0.2094
     21 C          64.6374   89.5691   14.9560 C.ar    1  UNL1        0.1392
     22 C          65.3176   90.7395   14.3098 C.ar    1  UNL1        0.1674
     23 O          64.7135   90.9343   12.9507 O.2     1  UNL1       -0.4370
     24 C          66.4101   91.5694   14.9162 C.ar    1  UNL1        0.0553
     25 C          67.7762   91.5793   14.2968 C.ar    1  UNL1        0.0062
     26 C          68.8686   92.4092   14.9032 C.ar    1  UNL1        0.0208
     27 C          68.5950   93.2292   16.1290 C.ar    1  UNL1        0.0989
     28 N          67.2289   93.2193   16.7485 N.ar    1  UNL1       -0.2422
     29 C          66.1364   92.3894   16.1421 C.ar    1  UNL1        0.1019
     30 C          59.3790   89.0068    6.6615 C.3     1  UNL1        0.1021
     31 C          59.3287   90.0841    5.6190 C.3     1  UNL1        0.1269
     32 O          58.0054   90.6072    5.1445 O.3     1  UNL1       -0.3830
     33 H          57.2898   90.1457    5.6092 H       1  UNL1        0.2104
     34 C          60.6016   90.6382    5.0510 C.3     1  UNL1        0.0401
     35 C          60.5515   91.6434    3.9388 C.3     1  UNL1        0.0833
     36 C          61.7946   91.9679    3.1646 C.2     1  UNL1        0.2226
     37 O          63.0504   91.1814    3.3982 O.2     1  UNL1       -0.2751
     38 N          61.7819   93.0788    2.1568 N.am    1  UNL1       -0.2999
     39 H          60.9577   93.5950    2.0035 H       1  UNL1        0.1498
     40 C          63.0250   93.4034    1.3826 C.3     1  UNL1        0.1278
     41 C          63.0017   93.3816   -0.1170 C.ar    1  UNL1        0.0320
     42 C          61.7352   93.0354   -0.8425 C.ar    1  UNL1        0.0004
     43 C          61.7119   93.0137   -2.3422 C.ar    1  UNL1       -0.0001
     44 C          62.9550   93.3382   -3.1164 C.ar    1  UNL1        0.0031
     45 C          64.2214   93.6844   -2.3910 C.ar    1  UNL1        0.0366
     46 C          64.2448   93.7062   -0.8913 C.ar    1  UNL1        0.1362
     47 O          65.5112   94.0524   -0.1658 O.3     1  UNL1       -0.4730
     48 C          65.5345   94.0741    1.3338 C.3     1  UNL1        0.2364
     49 C          64.2914   93.7496    2.1080 C.3     1  UNL1        0.1762
     50 O          64.3148   93.7713    3.6077 O.3     1  UNL1       -0.3788
     51 H          65.2032   94.0121    3.9138 H       1  UNL1        0.2106
     52 C          59.2582   92.3242    3.6008 C.3     1  UNL1        0.0355
     53 C          59.1634   93.1904    2.3799 C.ar    1  UNL1       -0.0217
     54 C          58.5489   92.6500    1.1227 C.ar    1  UNL1       -0.0043
     55 C          58.4541   93.5163   -0.0982 C.ar    1  UNL1       -0.0003
     56 C          58.9737   94.9230   -0.0619 C.ar    1  UNL1       -0.0000
     57 C          59.5882   95.4634    1.1952 C.ar    1  UNL1       -0.0003
     58 C          59.6830   94.5971    2.4161 C.ar    1  UNL1       -0.0043
@<TRIPOS>BOND
     1    16    17    1
     2    17    18    1
     3    17    19    1
     4    19    20   ar
     5    20    21   ar
     6    21    22   ar
     7    22    24    1
     8    24    25   ar
     9    25    26   ar
    10    26    27   ar
    11    27    28   ar
    12    28    29   ar
    13    22    23   ar
    14    17     1    1
    15     1     2    1
    16     2     3    1
    17     3     4    1
    18     4    30    1
    19    30    31    1
    20    31    32    1
    21    31    34    1
    22    35    34    1
    23    35    52    1
    24    52    53    1
    25    53    54   ar
    26    54    55   ar
    27    55    56   ar
    28    56    57   ar
    29    57    58   ar
    30    35    36    1
    31    36    37    2
    32    36    38   am
    33    40    38    1
    34    40    41    1
    35    41    42   ar
    36    42    43   ar
    37    43    44   ar
    38    44    45   ar
    39    45    46   ar
    40    46    47    1
    41    47    48    1
    42    48    49    1
    43    49    50    1
    44     4     5    1
    45     5     7    1
    46     7     8    2
    47     7     9   am
    48     9    11    1
    49    11    12    1
    50    12    13    1
    51    12    14    1
    52    12    15    1
    53     5     6    1
    54    23    19   ar
    55     6     1    1
    56    29    24   ar
    57    58    53   ar
    58    49    40    1
    59    46    41   ar
    60    32    33    1
    61    38    39    1
    62    50    51    1
    63     9    10    1
