@<TRIPOS>MOLECULE
*****
 29 33 0 0 0
SMALL
GASTEIGER

@<TRIPOS>ATOM
      1 C          64.3401   82.6279   15.1051 C.3     1  UNL1        0.0534
      2 C          63.8645   83.7643   14.2491 C.ar    1  UNL1        0.0730
      3 N          64.2009   85.2134   14.4411 N.ar    1  UNL1       -0.2299
      4 C          63.5133   85.9958   13.3617 C.ar    1  UNL1        0.1601
      5 C          63.4822   87.4627   13.0500 C.ar    1  UNL1        0.0771
      6 C          62.6897   87.9641   11.8793 C.ar    1  UNL1        0.0116
      7 C          61.9284   86.9984   11.0202 C.ar    1  UNL1        0.0817
      8 C          61.9596   85.5315   11.3318 C.ar    1  UNL1        0.0985
      9 N          62.7521   85.0302   12.5026 N.ar    1  UNL1       -0.2906
     10 C          62.9691   83.6510   13.0511 C.ar    1  UNL1        0.0567
     11 C          62.3920   82.3815   12.4984 C.3     1  UNL1        0.0517
     12 C          62.6585   89.4310   11.5677 C.3     1  UNL1        0.0313
     13 C          63.4197   90.3966   12.4268 C.3     1  UNL1        0.0288
     14 C          64.2122   89.8952   13.5975 C.3     1  UNL1        0.0923
     15 N          64.2434   88.4283   13.9092 N.pl3   1  UNL1       -0.3284
     16 H          64.7635   88.0993   14.6776 H       1  UNL1        0.1471
     17 N          61.1359   87.4998    9.8494 N.ar    1  UNL1       -0.2719
     18 C          60.3871   88.7955    9.9502 C.ar    1  UNL1        0.0830
     19 C          59.5947   89.2969    8.7795 C.ar    1  UNL1        0.0192
     20 C          59.5510   88.5024    7.5079 C.ar    1  UNL1        0.0064
     21 C          60.2998   87.2066    7.4071 C.ar    1  UNL1        0.0611
     22 C          61.0923   86.7052    8.5778 C.ar    1  UNL1        0.2649
     23 O          61.8410   85.4094    8.4770 O.2     1  UNL1       -0.2666
     24 C          64.9735   90.8609   14.4566 C.ar    1  UNL1       -0.0046
     25 C          66.3362   91.3258   14.0361 C.ar    1  UNL1       -0.0027
     26 C          67.0975   92.2914   14.8952 C.ar    1  UNL1       -0.0003
     27 C          66.4960   92.7921   16.1749 C.ar    1  UNL1       -0.0000
     28 C          65.1332   92.3272   16.5954 C.ar    1  UNL1       -0.0003
     29 C          64.3720   91.3616   15.7363 C.ar    1  UNL1       -0.0027
@<TRIPOS>BOND
     1     1     2    1
     2     2     3   ar
     3     3     4   ar
     4     4     5   ar
     5     5     6   ar
     6     6     7   ar
     7     7    17    1
     8    17    18   ar
     9    18    19   ar
    10    19    20   ar
    11    20    21   ar
    12    21    22   ar
    13    22    23    2
    14     7     8   ar
    15     8     9   ar
    16     9    10   ar
    17    10    11    1
    18     6    12    1
    19    12    13    1
    20    13    14    1
    21    14    24    1
    22    24    25   ar
    23    25    26   ar
    24    26    27   ar
    25    27    28   ar
    26    28    29   ar
    27    14    15    1
    28    10     2   ar
    29    29    24   ar
    30     9     4   ar
    31    15     5    1
    32    22    17   ar
    33    15    16    1
@<TRIPOS>MOLECULE
*****
 29 33 0 0 0
SMALL
GASTEIGER

@<TRIPOS>ATOM
      1 C          63.6966   81.9343   13.2076 C.3     1  UNL1        0.0534
      2 C          63.6677   83.4334   13.2520 C.ar    1  UNL1        0.0730
      3 N          62.9537   84.3305   12.2848 N.ar    1  UNL1       -0.2299
      4 C          63.1925   85.7501   12.7064 C.ar    1  UNL1        0.1601
      5 C          62.7366   87.0582   12.1309 C.ar    1  UNL1        0.0771
      6 C          63.1423   88.3465   12.7832 C.ar    1  UNL1        0.0116
      7 C          64.0038   88.3268   14.0111 C.ar    1  UNL1        0.0817
      8 C          64.4596   87.0187   14.5865 C.ar    1  UNL1        0.0985
      9 N          64.0539   85.7304   13.9342 N.ar    1  UNL1       -0.2906
     10 C          64.3476   84.2986   14.2714 C.ar    1  UNL1        0.0567
     11 C          65.1759   83.8166   15.4255 C.3     1  UNL1        0.0517
     12 C          62.6866   89.6546   12.2078 C.3     1  UNL1        0.0313
     13 C          61.8251   89.6743   10.9800 C.3     1  UNL1        0.0288
     14 C          61.4194   88.3859   10.3277 C.3     1  UNL1        0.0923
     15 N          61.8752   87.0779   10.9031 N.pl3   1  UNL1       -0.3284
     16 H          61.6089   86.2323   10.4750 H       1  UNL1        0.1471
     17 N          64.4095   89.6152   14.6634 N.ar    1  UNL1       -0.2719
     18 C          65.6289   90.3464   14.1855 C.ar    1  UNL1        0.0830
     19 C          66.0346   91.6347   14.8378 C.ar    1  UNL1        0.0192
     20 C          65.2209   92.1919   15.9681 C.ar    1  UNL1        0.0064
     21 C          64.0014   91.4607   16.4460 C.ar    1  UNL1        0.0611
     22 C          63.5957   90.1723   15.7937 C.ar    1  UNL1        0.2649
     23 O          62.3764   89.4411   16.2716 O.2     1  UNL1       -0.2666
     24 C          60.5579   88.4057    9.0999 C.ar    1  UNL1       -0.0046
     25 C          59.8802   87.1495    8.6389 C.ar    1  UNL1       -0.0027
     26 C          59.0187   87.1692    7.4111 C.ar    1  UNL1       -0.0003
     27 C          58.8350   88.4453    6.6442 C.ar    1  UNL1       -0.0000
     28 C          59.5128   89.7015    7.1052 C.ar    1  UNL1       -0.0003
     29 C          60.3743   89.6817    8.3330 C.ar    1  UNL1       -0.0027
@<TRIPOS>BOND
     1     1     2    1
     2     2     3   ar
     3     3     4   ar
     4     4     5   ar
     5     5     6   ar
     6     6     7   ar
     7     7    17    1
     8    17    18   ar
     9    18    19   ar
    10    19    20   ar
    11    20    21   ar
    12    21    22   ar
    13    22    23    2
    14     7     8   ar
    15     8     9   ar
    16     9    10   ar
    17    10    11    1
    18     6    12    1
    19    12    13    1
    20    13    14    1
    21    14    24    1
    22    24    25   ar
    23    25    26   ar
    24    26    27   ar
    25    27    28   ar
    26    28    29   ar
    27    14    15    1
    28    10     2   ar
    29    29    24   ar
    30     9     4   ar
    31    15     5    1
    32    22    17   ar
    33    15    16    1
@<TRIPOS>MOLECULE
*****
 29 33 0 0 0
SMALL
GASTEIGER

@<TRIPOS>ATOM
      1 C          59.0550   87.6194    7.6468 C.3     1  UNL1        0.0534
      2 C          60.0006   87.8191    8.7940 C.ar    1  UNL1        0.0730
      3 N          60.5665   86.7396    9.6683 N.ar    1  UNL1       -0.2299
      4 C          61.4620   87.3867   10.6829 C.ar    1  UNL1        0.1601
      5 C          62.2871   86.8198   11.8000 C.ar    1  UNL1        0.0771
      6 C          63.0998   87.7324   12.6698 C.ar    1  UNL1        0.0116
      7 C          63.0873   89.2119   12.4226 C.ar    1  UNL1        0.0817
      8 C          62.2622   89.7787   11.3055 C.ar    1  UNL1        0.0985
      9 N          61.4495   88.8661   10.4357 N.ar    1  UNL1       -0.2906
     10 C          60.5464   89.1333    9.2683 C.ar    1  UNL1        0.0567
     11 C          60.2423   90.4788    8.6786 C.3     1  UNL1        0.0517
     12 C          63.9249   87.1656   13.7869 C.3     1  UNL1        0.0313
     13 C          63.9374   85.6862   14.0341 C.3     1  UNL1        0.0288
     14 C          63.1247   84.7736   13.1643 C.3     1  UNL1        0.0923
     15 N          62.2995   85.3404   12.0472 N.pl3   1  UNL1       -0.3284
     16 H          61.7661   84.7414   11.4763 H       1  UNL1        0.1471
     17 N          63.9000   90.1245   13.2924 N.ar    1  UNL1       -0.2719
     18 C          65.0892   90.8404   12.7237 C.ar    1  UNL1        0.0830
     19 C          65.9019   91.7530   13.5936 C.ar    1  UNL1        0.0192
     20 C          65.5254   91.9498   15.0322 C.ar    1  UNL1        0.0064
     21 C          64.3363   91.2339   15.6009 C.ar    1  UNL1        0.0611
     22 C          63.5236   90.3213   14.7311 C.ar    1  UNL1        0.2649
     23 O          62.3344   89.6054   15.2998 O.2     1  UNL1       -0.2666
     24 C          63.1371   83.2941   13.4115 C.ar    1  UNL1       -0.0046
     25 C          62.0173   82.6519   14.1753 C.ar    1  UNL1       -0.0027
     26 C          62.0297   81.1725   14.4226 C.ar    1  UNL1       -0.0003
     27 C          63.1621   80.3353   13.9060 C.ar    1  UNL1       -0.0000
     28 C          64.2820   80.9775   13.1421 C.ar    1  UNL1       -0.0003
     29 C          64.2695   82.4569   12.8949 C.ar    1  UNL1       -0.0027
@<TRIPOS>BOND
     1     1     2    1
     2     2     3   ar
     3     3     4   ar
     4     4     5   ar
     5     5     6   ar
     6     6     7   ar
     7     7    17    1
     8    17    18   ar
     9    18    19   ar
    10    19    20   ar
    11    20    21   ar
    12    21    22   ar
    13    22    23    2
    14     7     8   ar
    15     8     9   ar
    16     9    10   ar
    17    10    11    1
    18     6    12    1
    19    12    13    1
    20    13    14    1
    21    14    24    1
    22    24    25   ar
    23    25    26   ar
    24    26    27   ar
    25    27    28   ar
    26    28    29   ar
    27    14    15    1
    28    10     2   ar
    29    29    24   ar
    30     9     4   ar
    31    15     5    1
    32    22    17   ar
    33    15    16    1
@<TRIPOS>MOLECULE
*****
 29 33 0 0 0
SMALL
GASTEIGER

@<TRIPOS>ATOM
      1 C          66.1077   94.5273   10.7096 C.3     1  UNL1        0.0534
      2 C          65.4937   93.2923   11.2994 C.ar    1  UNL1        0.0730
      3 N          64.4531   92.4287   10.6501 N.ar    1  UNL1       -0.2299
      4 C          64.1288   91.3068   11.5914 C.ar    1  UNL1        0.1601
      5 C          63.1769   90.1522   11.4867 C.ar    1  UNL1        0.0771
      6 C          63.0652   89.1678   12.6129 C.ar    1  UNL1        0.0116
      7 C          63.9054   89.3380   13.8439 C.ar    1  UNL1        0.0817
      8 C          64.8572   90.4925   13.9486 C.ar    1  UNL1        0.0985
      9 N          64.9689   91.4770   12.8224 N.ar    1  UNL1       -0.2906
     10 C          65.8124   92.7041   12.6419 C.ar    1  UNL1        0.0567
     11 C          66.8012   93.2475   13.6304 C.3     1  UNL1        0.0517
     12 C          62.1134   88.0132   12.5082 C.3     1  UNL1        0.0313
     13 C          61.2733   87.8431   11.2772 C.3     1  UNL1        0.0288
     14 C          61.3851   88.8275   10.1510 C.3     1  UNL1        0.0923
     15 N          62.3369   89.9821   10.2557 N.pl3   1  UNL1       -0.3284
     16 H          62.4102   90.6282    9.5165 H       1  UNL1        0.1471
     17 N          63.7936   88.3535   14.9701 N.ar    1  UNL1       -0.2719
     18 C          64.2837   86.9475   14.7887 C.ar    1  UNL1        0.0830
     19 C          64.1720   85.9631   15.9149 C.ar    1  UNL1        0.0192
     20 C          63.5702   86.3846   17.2226 C.ar    1  UNL1        0.0064
     21 C          63.0801   87.7907   17.4041 C.ar    1  UNL1        0.0611
     22 C          63.1918   88.7751   16.2779 C.ar    1  UNL1        0.2649
     23 O          62.7017   90.1811   16.4593 O.2     1  UNL1       -0.2666
     24 C          60.5449   88.6574    8.9200 C.ar    1  UNL1       -0.0046
     25 C          59.9463   87.3199    8.5995 C.ar    1  UNL1       -0.0027
     26 C          59.1062   87.1497    7.3685 C.ar    1  UNL1       -0.0003
     27 C          58.8647   88.3171    6.4581 C.ar    1  UNL1       -0.0000
     28 C          59.4633   89.6546    6.7786 C.ar    1  UNL1       -0.0003
     29 C          60.3034   89.8247    8.0096 C.ar    1  UNL1       -0.0027
@<TRIPOS>BOND
     1     1     2    1
     2     2     3   ar
     3     3     4   ar
     4     4     5   ar
     5     5     6   ar
     6     6     7   ar
     7     7    17    1
     8    17    18   ar
     9    18    19   ar
    10    19    20   ar
    11    20    21   ar
    12    21    22   ar
    13    22    23    2
    14     7     8   ar
    15     8     9   ar
    16     9    10   ar
    17    10    11    1
    18     6    12    1
    19    12    13    1
    20    13    14    1
    21    14    24    1
    22    24    25   ar
    23    25    26   ar
    24    26    27   ar
    25    27    28   ar
    26    28    29   ar
    27    14    15    1
    28    10     2   ar
    29    29    24   ar
    30     9     4   ar
    31    15     5    1
    32    22    17   ar
    33    15    16    1
@<TRIPOS>MOLECULE
*****
 29 33 0 0 0
SMALL
GASTEIGER

@<TRIPOS>ATOM
      1 C          63.2520   89.6138   17.3280 C.3     1  UNL1        0.0534
      2 C          63.5636   90.1920   15.9794 C.ar    1  UNL1        0.0730
      3 N          62.9642   89.7587   14.6744 N.ar    1  UNL1       -0.2299
      4 C          63.5595   90.6039   13.5876 C.ar    1  UNL1        0.1601
      5 C          63.3456   90.6268   12.1031 C.ar    1  UNL1        0.0771
      6 C          64.0991   91.6054   11.2518 C.ar    1  UNL1        0.0116
      7 C          65.0663   92.5612   11.8851 C.ar    1  UNL1        0.0817
      8 C          65.2801   92.5383   13.3696 C.ar    1  UNL1        0.0985
      9 N          64.5266   91.5597   14.2209 N.ar    1  UNL1       -0.2906
     10 C          64.5292   91.3051   15.6991 C.ar    1  UNL1        0.0567
     11 C          65.3528   92.0355   16.7181 C.3     1  UNL1        0.0517
     12 C          63.8853   91.6283    9.7673 C.3     1  UNL1        0.0313
     13 C          62.9181   90.6725    9.1341 C.3     1  UNL1        0.0288
     14 C          62.1647   89.6939    9.9854 C.3     1  UNL1        0.0923
     15 N          62.3785   89.6710   11.4698 N.pl3   1  UNL1       -0.3284
     16 H          61.8840   89.0287   12.0286 H       1  UNL1        0.1471
     17 N          65.8197   93.5398   11.0339 N.ar    1  UNL1       -0.2719
     18 C          65.3016   94.9367   10.8596 C.ar    1  UNL1        0.0830
     19 C          66.0551   95.9153   10.0083 C.ar    1  UNL1        0.0192
     20 C          67.3265   95.4971    9.3313 C.ar    1  UNL1        0.0064
     21 C          67.8447   94.1002    9.5056 C.ar    1  UNL1        0.0611
     22 C          67.0913   93.1215   10.3568 C.ar    1  UNL1        0.2649
     23 O          67.6093   91.7247   10.5311 O.2     1  UNL1       -0.2666
     24 C          61.1975   88.7381    9.3521 C.ar    1  UNL1       -0.0046
     25 C          60.1025   89.2555    8.4671 C.ar    1  UNL1       -0.0027
     26 C          59.1352   88.2997    7.8338 C.ar    1  UNL1       -0.0003
     27 C          59.2631   86.8265    8.0855 C.ar    1  UNL1       -0.0000
     28 C          60.3582   86.3091    8.9705 C.ar    1  UNL1       -0.0003
     29 C          61.3253   87.2649    9.6038 C.ar    1  UNL1       -0.0027
@<TRIPOS>BOND
     1     1     2    1
     2     2     3   ar
     3     3     4   ar
     4     4     5   ar
     5     5     6   ar
     6     6     7   ar
     7     7    17    1
     8    17    18   ar
     9    18    19   ar
    10    19    20   ar
    11    20    21   ar
    12    21    22   ar
    13    22    23    2
    14     7     8   ar
    15     8     9   ar
    16     9    10   ar
    17    10    11    1
    18     6    12    1
    19    12    13    1
    20    13    14    1
    21    14    24    1
    22    24    25   ar
    23    25    26   ar
    24    26    27   ar
    25    27    28   ar
    26    28    29   ar
    27    14    15    1
    28    10     2   ar
    29    29    24   ar
    30     9     4   ar
    31    15     5    1
    32    22    17   ar
    33    15    16    1
