@<TRIPOS>MOLECULE
*****
 38 41 0 0 0
SMALL
GASTEIGER

@<TRIPOS>ATOM
      1 C          62.3764   89.7876   12.2624 C.ar    1  UNL1        0.0856
      2 N          61.2094   90.6749   11.9449 N.ar    1  UNL1       -0.2142
      3 C          59.9595   90.0890   11.3582 C.ar    1  UNL1        0.2134
      4 N          58.7925   90.9763   11.0407 N.pl3   1  UNL1       -0.3275
      5 N          59.8765   88.6157   11.0890 N.ar    1  UNL1       -0.2169
      6 C          61.0435   87.7283   11.4065 C.ar    1  UNL1        0.0810
      7 C          62.2934   88.3143   11.9932 C.ar    1  UNL1        0.0309
      8 C          63.2749   87.1992   12.2010 C.3     1  UNL1        0.1248
      9 N          62.6315   85.9240   11.7428 N.am    1  UNL1       -0.2543
     10 C          63.2574   84.5611   11.7706 C.2     1  UNL1        0.3046
     11 O          64.6528   84.3871   12.2927 O.2     1  UNL1       -0.2526
     12 N          62.4878   83.3722   11.2764 N.am    1  UNL1       -0.2837
     13 C          61.2524   86.2510   11.2517 C.3     1  UNL1        0.1409
     14 H          58.8469   91.9433   11.2174 H       1  UNL1        0.1452
     15 H          57.9721   90.5916   10.6556 H       1  UNL1        0.1452
     16 H          61.5720   83.4864   10.9338 H       1  UNL1        0.1512
     17 C          64.0307   91.7070   10.6563 C.3     1  UNL1        0.0312
     18 C          64.4535   91.3333   12.0461 C.ar    1  UNL1       -0.0166
     19 C          65.7034   91.9193   12.6329 C.ar    1  UNL1        0.0074
     20 C          66.1261   91.5456   14.0228 C.ar    1  UNL1        0.0604
     21 CL         67.3761   92.1316   14.6096 Cl      1  UNL1       -0.0822
     22 C          65.2991   90.5859   14.8258 C.ar    1  UNL1        0.0483
     23 C          64.0492   89.9999   14.2390 C.ar    1  UNL1        0.1405
     24 C          63.6264   90.3736   12.8492 C.ar    1  UNL1        0.0476
     25 O          63.2220   89.0402   15.0420 O.3     1  UNL1       -0.4732
     26 C          63.1747   89.1594   16.5365 C.3     1  UNL1        0.2316
     27 C          63.0281   87.9295   17.3828 C.3     1  UNL1        0.1747
     28 N          62.9787   86.5764   16.7373 N.ar    1  UNL1       -0.2432
     29 C          64.1450   85.8343   16.1551 C.ar    1  UNL1        0.1264
     30 C          63.6416   84.5271   15.6187 C.ar    1  UNL1        0.1796
     31 F          64.4701   83.4710   14.9491 F       1  UNL1       -0.2008
     32 C          62.1641   84.4614   15.8694 C.ar    1  UNL1        0.1512
     33 N          61.7545   85.7279   16.5608 N.ar    1  UNL1       -0.1651
     34 C          63.1137   82.0093   11.3043 C.3     1  UNL1        0.1578
     35 C          62.6607   80.9965   12.3139 C.3     1  UNL1        0.2818
     36 C          62.2078   79.9838   13.3234 C.3     1  UNL1        0.0740
     37 F          62.8062   79.9103   11.2896 F       1  UNL1       -0.2025
     38 F          62.5153   82.0826   13.3381 F       1  UNL1       -0.2025
@<TRIPOS>BOND
     1    17    18    1
     2    18    19   ar
     3    19    20   ar
     4    20    21    1
     5    20    22   ar
     6    22    23   ar
     7    23    25    1
     8    25    26    1
     9    26    27    1
    10    27    28    1
    11    28    29   ar
    12    29    30   ar
    13    30    31    1
    14    30    32   ar
    15    32    33   ar
    16    23    24   ar
    17    24     1    1
    18     1     2   ar
    19     2     3   ar
    20     3     4    1
    21     3     5   ar
    22     5     6   ar
    23     6     7   ar
    24     7     8    1
    25     8     9    1
    26     9    10   am
    27    10    11    2
    28    10    12   am
    29    12    34    1
    30    34    35    1
    31    35    36    1
    32    35    37    1
    33    35    38    1
    34     9    13    1
    35    24    18   ar
    36     7     1   ar
    37    33    28   ar
    38    13     6    1
    39     4    14    1
    40     4    15    1
    41    12    16    1
@<TRIPOS>MOLECULE
*****
 38 41 0 0 0
SMALL
GASTEIGER

@<TRIPOS>ATOM
      1 C          64.2145   90.1238   13.7983 C.ar    1  UNL1        0.0856
      2 N          65.3796   91.0554   13.9559 N.ar    1  UNL1       -0.2142
      3 C          65.7733   91.9616   12.8275 C.ar    1  UNL1        0.2134
      4 N          66.9384   92.8932   12.9851 N.pl3   1  UNL1       -0.3275
      5 N          65.0019   91.9364   11.5412 N.ar    1  UNL1       -0.2169
      6 C          63.8368   91.0049   11.3836 C.ar    1  UNL1        0.0810
      7 C          63.4431   90.0986   12.5121 C.ar    1  UNL1        0.0309
      8 C          62.2582   89.2931   12.0680 C.3     1  UNL1        0.1248
      9 N          61.9196   89.7017   10.6651 N.am    1  UNL1       -0.2543
     10 C          60.8016   89.1493    9.8314 C.2     1  UNL1        0.3046
     11 O          59.9016   88.0882   10.3919 O.2     1  UNL1       -0.2526
     12 N          60.5835   89.6580    8.4373 N.am    1  UNL1       -0.2837
     13 C          62.8952   90.7596   10.2420 C.3     1  UNL1        0.1409
     14 H          67.4447   92.9098   13.8292 H       1  UNL1        0.1452
     15 H          67.1967   93.4881   12.2444 H       1  UNL1        0.1452
     16 H          61.1742   90.3544    8.0693 H       1  UNL1        0.1512
     17 C          63.5152   91.2801   16.4768 C.3     1  UNL1        0.0312
     18 C          63.4712   89.7956   16.2661 C.ar    1  UNL1       -0.0166
     19 C          63.0776   88.8892   17.3946 C.ar    1  UNL1        0.0074
     20 C          63.0336   87.4048   17.1839 C.ar    1  UNL1        0.0604
     21 CL         62.6400   86.4984   18.3124 Cl      1  UNL1       -0.0822
     22 C          63.3833   86.8266   15.8447 C.ar    1  UNL1        0.0483
     23 C          63.7769   87.7330   14.7162 C.ar    1  UNL1        0.1405
     24 C          63.8209   89.2174   14.9269 C.ar    1  UNL1        0.0476
     25 O          64.1265   87.1549   13.3770 O.3     1  UNL1       -0.4732
     26 C          63.5488   85.8364   12.9553 C.3     1  UNL1        0.2316
     27 C          64.2062   84.5579   13.3836 C.3     1  UNL1        0.1747
     28 N          63.4387   83.2698   13.3436 N.ar    1  UNL1       -0.2432
     29 C          62.3011   82.8930   14.2458 C.ar    1  UNL1        0.1264
     30 C          61.8333   81.5227   13.8543 C.ar    1  UNL1        0.1796
     31 F          60.7136   80.7569   14.4945 F       1  UNL1       -0.2008
     32 C          62.6819   81.0526   12.7102 C.ar    1  UNL1        0.1512
     33 N          63.6740   82.1324   12.3946 N.ar    1  UNL1       -0.1651
     34 C          59.4655   89.1056    7.6037 C.3     1  UNL1        0.1578
     35 C          58.9761   89.8657    6.4067 C.3     1  UNL1        0.2818
     36 C          58.4868   90.6259    5.2098 C.3     1  UNL1        0.0740
     37 F          57.5693   89.4465    6.7156 F       1  UNL1       -0.2025
     38 F          60.3828   90.2850    6.0979 F       1  UNL1       -0.2025
@<TRIPOS>BOND
     1    17    18    1
     2    18    19   ar
     3    19    20   ar
     4    20    21    1
     5    20    22   ar
     6    22    23   ar
     7    23    25    1
     8    25    26    1
     9    26    27    1
    10    27    28    1
    11    28    29   ar
    12    29    30   ar
    13    30    31    1
    14    30    32   ar
    15    32    33   ar
    16    23    24   ar
    17    24     1    1
    18     1     2   ar
    19     2     3   ar
    20     3     4    1
    21     3     5   ar
    22     5     6   ar
    23     6     7   ar
    24     7     8    1
    25     8     9    1
    26     9    10   am
    27    10    11    2
    28    10    12   am
    29    12    34    1
    30    34    35    1
    31    35    36    1
    32    35    37    1
    33    35    38    1
    34     9    13    1
    35    24    18   ar
    36     7     1   ar
    37    33    28   ar
    38    13     6    1
    39     4    14    1
    40     4    15    1
    41    12    16    1
@<TRIPOS>MOLECULE
*****
 38 41 0 0 0
SMALL
GASTEIGER

@<TRIPOS>ATOM
      1 C          62.3192   86.4901   12.1155 C.ar    1  UNL1        0.0856
      2 N          62.2120   85.1335   12.7466 N.ar    1  UNL1       -0.2142
      3 C          62.9164   84.8502   14.0402 C.ar    1  UNL1        0.2134
      4 N          62.8092   83.4936   14.6712 N.pl3   1  UNL1       -0.3275
      5 N          63.7281   85.9235   14.7028 N.ar    1  UNL1       -0.2169
      6 C          63.8354   87.2801   14.0718 C.ar    1  UNL1        0.0810
      7 C          63.1309   87.5634   12.7782 C.ar    1  UNL1        0.0309
      8 C          63.4178   88.9852   12.3958 C.3     1  UNL1        0.1248
      9 N          64.2996   89.5806   13.4531 N.am    1  UNL1       -0.2543
     10 C          64.8301   90.9835   13.4714 C.2     1  UNL1        0.3046
     11 O          64.4854   91.9303   12.3603 O.2     1  UNL1       -0.2526
     12 N          65.7055   91.4397   14.6009 N.am    1  UNL1       -0.2837
     13 C          64.5577   88.5268   14.4890 C.3     1  UNL1        0.1409
     14 H          62.2765   82.7891   14.2363 H       1  UNL1        0.1452
     15 H          63.2716   83.3077   15.5203 H       1  UNL1        0.1452
     16 H          65.9318   90.8183   15.3302 H       1  UNL1        0.1512
     17 C          59.8854   88.2439   12.0855 C.3     1  UNL1        0.0312
     18 C          60.3979   87.6502   10.8069 C.ar    1  UNL1       -0.0166
     19 C          59.6934   87.9333    9.5132 C.ar    1  UNL1        0.0074
     20 C          60.2059   87.3396    8.2346 C.ar    1  UNL1        0.0604
     21 CL         59.5015   87.6227    6.9409 Cl      1  UNL1       -0.0822
     22 C          61.4228   86.4627    8.2496 C.ar    1  UNL1        0.0483
     23 C          62.1272   86.1796    9.5433 C.ar    1  UNL1        0.1405
     24 C          61.6147   86.7733   10.8219 C.ar    1  UNL1        0.0476
     25 O          63.3441   85.3027    9.5583 O.3     1  UNL1       -0.4732
     26 C          63.1945   83.8140    9.6648 C.3     1  UNL1        0.2316
     27 C          64.2462   83.0023   10.3614 C.3     1  UNL1        0.1747
     28 N          63.8678   82.1047   11.5020 N.ar    1  UNL1       -0.2432
     29 C          62.6499   81.2317   11.5704 C.ar    1  UNL1        0.1264
     30 C          62.6703   80.5099   12.8852 C.ar    1  UNL1        0.1796
     31 F          61.6409   79.5328   13.3706 F       1  UNL1       -0.2008
     32 C          63.9007   80.9368   13.6293 C.ar    1  UNL1        0.1512
     33 N          64.6408   81.9224   12.7744 N.ar    1  UNL1       -0.1651
     34 C          66.2360   92.8426   14.6191 C.3     1  UNL1        0.1578
     35 C          67.5950   93.1231   15.1886 C.3     1  UNL1        0.2818
     36 C          68.9541   93.4036   15.7581 C.3     1  UNL1        0.0740
     37 F          66.9788   93.3825   16.5314 F       1  UNL1       -0.2025
     38 F          68.2113   92.8638   13.8459 F       1  UNL1       -0.2025
@<TRIPOS>BOND
     1    17    18    1
     2    18    19   ar
     3    19    20   ar
     4    20    21    1
     5    20    22   ar
     6    22    23   ar
     7    23    25    1
     8    25    26    1
     9    26    27    1
    10    27    28    1
    11    28    29   ar
    12    29    30   ar
    13    30    31    1
    14    30    32   ar
    15    32    33   ar
    16    23    24   ar
    17    24     1    1
    18     1     2   ar
    19     2     3   ar
    20     3     4    1
    21     3     5   ar
    22     5     6   ar
    23     6     7   ar
    24     7     8    1
    25     8     9    1
    26     9    10   am
    27    10    11    2
    28    10    12   am
    29    12    34    1
    30    34    35    1
    31    35    36    1
    32    35    37    1
    33    35    38    1
    34     9    13    1
    35    24    18   ar
    36     7     1   ar
    37    33    28   ar
    38    13     6    1
    39     4    14    1
    40     4    15    1
    41    12    16    1
@<TRIPOS>MOLECULE
*****
 38 41 0 0 0
SMALL
GASTEIGER

@<TRIPOS>ATOM
      1 C          63.2182   89.6667   13.0558 C.ar    1  UNL1        0.0856
      2 N          62.9074   89.3761   14.4943 N.ar    1  UNL1       -0.2142
      3 C          63.4699   90.2513   15.5748 C.ar    1  UNL1        0.2134
      4 N          63.1590   89.9607   17.0132 N.pl3   1  UNL1       -0.3275
      5 N          64.3433   91.4171   15.2170 N.ar    1  UNL1       -0.2169
      6 C          64.6542   91.7077   13.7786 C.ar    1  UNL1        0.0810
      7 C          64.0916   90.8325   12.6981 C.ar    1  UNL1        0.0309
      8 C          64.5681   91.3618   11.3779 C.3     1  UNL1        0.1248
      9 N          65.4250   92.5641   11.6425 N.am    1  UNL1       -0.2543
     10 C          66.1088   93.4050   10.6055 C.2     1  UNL1        0.3046
     11 O          65.9635   93.0675    9.1512 O.2     1  UNL1       -0.2526
     12 N          66.9378   94.5833   11.0228 N.am    1  UNL1       -0.2837
     13 C          65.4783   92.7779   13.1263 C.3     1  UNL1        0.1409
     14 H          62.5858   89.1955   17.2481 H       1  UNL1        0.1452
     15 H          63.5283   90.5351   17.7224 H       1  UNL1        0.1452
     16 H          67.0332   94.8049   11.9773 H       1  UNL1        0.1512
     17 C          61.5222   90.8614   10.8887 C.3     1  UNL1        0.0312
     18 C          61.8077   89.3888   10.8918 C.ar    1  UNL1       -0.0166
     19 C          61.2452   88.5135    9.8113 C.ar    1  UNL1        0.0074
     20 C          61.5306   87.0409    9.8144 C.ar    1  UNL1        0.0604
     21 CL         60.9681   86.1656    8.7340 Cl      1  UNL1       -0.0822
     22 C          62.3786   86.4436   10.8980 C.ar    1  UNL1        0.0483
     23 C          62.9411   87.3189   11.9784 C.ar    1  UNL1        0.1405
     24 C          62.6557   88.7915   11.9753 C.ar    1  UNL1        0.0476
     25 O          63.7891   86.7216   13.0620 O.3     1  UNL1       -0.4732
     26 C          63.3300   85.4865   13.7787 C.3     1  UNL1        0.2316
     27 C          64.0764   84.1970   13.6045 C.3     1  UNL1        0.1747
     28 N          63.3259   82.9006   13.5264 N.ar    1  UNL1       -0.2432
     29 C          62.0798   82.5561   14.2870 C.ar    1  UNL1        0.1264
     30 C          61.6735   81.1637   13.9047 C.ar    1  UNL1        0.1796
     31 F          60.4814   80.4182   14.4275 F       1  UNL1       -0.2008
     32 C          62.6685   80.6477   12.9079 C.ar    1  UNL1        0.1512
     33 N          63.6898   81.7212   12.6742 N.ar    1  UNL1       -0.1651
     34 C          67.6216   95.4242    9.9857 C.3     1  UNL1        0.1578
     35 C          66.8109   96.1353    8.9431 C.3     1  UNL1        0.2818
     36 C          66.0001   96.8463    7.9004 C.3     1  UNL1        0.0740
     37 F          66.0057   96.7983   10.0212 F       1  UNL1       -0.2025
     38 F          67.6159   95.4723    7.8649 F       1  UNL1       -0.2025
@<TRIPOS>BOND
     1    17    18    1
     2    18    19   ar
     3    19    20   ar
     4    20    21    1
     5    20    22   ar
     6    22    23   ar
     7    23    25    1
     8    25    26    1
     9    26    27    1
    10    27    28    1
    11    28    29   ar
    12    29    30   ar
    13    30    31    1
    14    30    32   ar
    15    32    33   ar
    16    23    24   ar
    17    24     1    1
    18     1     2   ar
    19     2     3   ar
    20     3     4    1
    21     3     5   ar
    22     5     6   ar
    23     6     7   ar
    24     7     8    1
    25     8     9    1
    26     9    10   am
    27    10    11    2
    28    10    12   am
    29    12    34    1
    30    34    35    1
    31    35    36    1
    32    35    37    1
    33    35    38    1
    34     9    13    1
    35    24    18   ar
    36     7     1   ar
    37    33    28   ar
    38    13     6    1
    39     4    14    1
    40     4    15    1
    41    12    16    1
@<TRIPOS>MOLECULE
*****
 38 41 0 0 0
SMALL
GASTEIGER

@<TRIPOS>ATOM
      1 C          61.8959   86.5549   10.5848 C.ar    1  UNL1        0.0856
      2 N          60.7905   86.7099    9.5826 N.ar    1  UNL1       -0.2142
      3 C          60.1036   88.0336    9.4224 C.ar    1  UNL1        0.2134
      4 N          58.9982   88.1886    8.4202 N.pl3   1  UNL1       -0.3275
      5 N          60.5219   89.2024   10.2643 N.ar    1  UNL1       -0.2169
      6 C          61.6272   89.0475   11.2665 C.ar    1  UNL1        0.0810
      7 C          62.3142   87.7237   11.4267 C.ar    1  UNL1        0.0309
      8 C          63.3631   87.8714   12.4888 C.3     1  UNL1        0.1248
      9 N          63.3243   89.2864   12.9849 N.am    1  UNL1       -0.2543
     10 C          64.2040   89.8718   14.0496 C.2     1  UNL1        0.3046
     11 O          65.2387   89.0181   14.7207 O.2     1  UNL1       -0.2526
     12 N          64.0488   91.3109   14.4432 N.am    1  UNL1       -0.2837
     13 C          62.2515   90.0133   12.2295 C.3     1  UNL1        0.1409
     14 H          58.7237   87.4215    7.8676 H       1  UNL1        0.1452
     15 H          58.5474   89.0574    8.3151 H       1  UNL1        0.1452
     16 H          63.3697   91.8712   14.0027 H       1  UNL1        0.1512
     17 C          63.2104   85.2516    8.2239 C.3     1  UNL1        0.0312
     18 C          63.2401   84.5795    9.5646 C.ar    1  UNL1       -0.0166
     19 C          63.9270   83.2557    9.7249 C.ar    1  UNL1        0.0074
     20 C          63.9567   82.5835   11.0655 C.ar    1  UNL1        0.0604
     21 CL         64.6436   81.2597   11.2258 Cl      1  UNL1       -0.0822
     22 C          63.2995   83.2351   12.2459 C.ar    1  UNL1        0.0483
     23 C          62.6125   84.5589   12.0857 C.ar    1  UNL1        0.1405
     24 C          62.5829   85.2311   10.7450 C.ar    1  UNL1        0.0476
     25 O          61.9553   85.2106   13.2660 O.3     1  UNL1       -0.4732
     26 C          61.7194   84.4247   14.5217 C.3     1  UNL1        0.2316
     27 C          62.7000   84.5075   15.6538 C.3     1  UNL1        0.1747
     28 N          62.7389   85.7283   16.5246 N.ar    1  UNL1       -0.2432
     29 C          63.1931   87.0953   16.1066 C.ar    1  UNL1        0.1264
     30 C          63.0653   88.0082   17.2899 C.ar    1  UNL1        0.1796
     31 F          63.4102   89.4677   17.3188 F       1  UNL1       -0.2008
     32 C          62.5321   87.2053   18.4392 C.ar    1  UNL1        0.1512
     33 N          62.3303   85.7962   17.9662 N.ar    1  UNL1       -0.1651
     34 C          64.9286   91.8962   15.5079 C.3     1  UNL1        0.1578
     35 C          66.1388   92.6954   15.1251 C.3     1  UNL1        0.2818
     36 C          67.3491   93.4947   14.7423 C.3     1  UNL1        0.0740
     37 F          65.7100   92.6567   13.6882 F       1  UNL1       -0.2025
     38 F          66.5676   92.7342   16.5620 F       1  UNL1       -0.2025
@<TRIPOS>BOND
     1    17    18    1
     2    18    19   ar
     3    19    20   ar
     4    20    21    1
     5    20    22   ar
     6    22    23   ar
     7    23    25    1
     8    25    26    1
     9    26    27    1
    10    27    28    1
    11    28    29   ar
    12    29    30   ar
    13    30    31    1
    14    30    32   ar
    15    32    33   ar
    16    23    24   ar
    17    24     1    1
    18     1     2   ar
    19     2     3   ar
    20     3     4    1
    21     3     5   ar
    22     5     6   ar
    23     6     7   ar
    24     7     8    1
    25     8     9    1
    26     9    10   am
    27    10    11    2
    28    10    12   am
    29    12    34    1
    30    34    35    1
    31    35    36    1
    32    35    37    1
    33    35    38    1
    34     9    13    1
    35    24    18   ar
    36     7     1   ar
    37    33    28   ar
    38    13     6    1
    39     4    14    1
    40     4    15    1
    41    12    16    1
@<TRIPOS>MOLECULE
*****
 38 41 0 0 0
SMALL
GASTEIGER

@<TRIPOS>ATOM
      1 C          62.8150   86.5028   11.5738 C.ar    1  UNL1        0.0856
      2 N          63.5703   87.1175   12.7148 N.ar    1  UNL1       -0.2142
      3 C          63.5301   88.6016   12.9280 C.ar    1  UNL1        0.2134
      4 N          64.2854   89.2163   14.0689 N.pl3   1  UNL1       -0.3275
      5 N          62.7344   89.4713   12.0003 N.ar    1  UNL1       -0.2169
      6 C          61.9790   88.8567   10.8593 C.ar    1  UNL1        0.0810
      7 C          62.0193   87.3725   10.6461 C.ar    1  UNL1        0.0309
      8 C          61.1801   87.0539    9.4444 C.3     1  UNL1        0.1248
      9 N          60.6212   88.3412    8.9149 N.am    1  UNL1       -0.2543
     10 C          59.7257   88.4885    7.7205 C.2     1  UNL1        0.3046
     11 O          59.3128   87.2768    6.9387 O.2     1  UNL1       -0.2526
     12 N          59.2431   89.8475    7.3080 N.am    1  UNL1       -0.2837
     13 C          61.1149   89.4554    9.7894 C.3     1  UNL1        0.1409
     14 H          64.8077   88.6455   14.6778 H       1  UNL1        0.1452
     15 H          64.2590   90.1904   14.2088 H       1  UNL1        0.1452
     16 H          59.5140   90.6428    7.8212 H       1  UNL1        0.1512
     17 C          63.6699   85.3909    8.9218 C.3     1  UNL1        0.0312
     18 C          63.2827   84.4626   10.0347 C.ar    1  UNL1       -0.0166
     19 C          63.3230   82.9784    9.8216 C.ar    1  UNL1        0.0074
     20 C          62.9359   82.0501   10.9345 C.ar    1  UNL1        0.0604
     21 CL         62.9762   80.5659   10.7214 Cl      1  UNL1       -0.0822
     22 C          62.5084   82.6061   12.2604 C.ar    1  UNL1        0.0483
     23 C          62.4681   84.0903   12.4735 C.ar    1  UNL1        0.1405
     24 C          62.8553   85.0185   11.3606 C.ar    1  UNL1        0.0476
     25 O          62.0407   84.6463   13.7994 O.3     1  UNL1       -0.4732
     26 C          62.3415   83.8926   15.0609 C.3     1  UNL1        0.2316
     27 C          63.3700   84.4151   16.0198 C.3     1  UNL1        0.1747
     28 N          63.1432   85.7188   16.7261 N.ar    1  UNL1       -0.2432
     29 C          63.5592   87.0728   16.2328 C.ar    1  UNL1        0.1264
     30 C          63.1337   88.0882   17.2515 C.ar    1  UNL1        0.1796
     31 F          63.3493   89.5700   17.1629 F       1  UNL1       -0.2008
     32 C          62.4547   87.3616   18.3745 C.ar    1  UNL1        0.1512
     33 N          62.4606   85.8972   18.0497 N.ar    1  UNL1       -0.1651
     34 C          58.3476   89.9947    6.1137 C.3     1  UNL1        0.1578
     35 C          58.5855   91.1017    5.1298 C.3     1  UNL1        0.2818
     36 C          58.8235   92.2087    4.1460 C.3     1  UNL1        0.0740
     37 F          57.1103   91.3676    5.0722 F       1  UNL1       -0.2025
     38 F          60.0606   90.8358    5.1874 F       1  UNL1       -0.2025
@<TRIPOS>BOND
     1    17    18    1
     2    18    19   ar
     3    19    20   ar
     4    20    21    1
     5    20    22   ar
     6    22    23   ar
     7    23    25    1
     8    25    26    1
     9    26    27    1
    10    27    28    1
    11    28    29   ar
    12    29    30   ar
    13    30    31    1
    14    30    32   ar
    15    32    33   ar
    16    23    24   ar
    17    24     1    1
    18     1     2   ar
    19     2     3   ar
    20     3     4    1
    21     3     5   ar
    22     5     6   ar
    23     6     7   ar
    24     7     8    1
    25     8     9    1
    26     9    10   am
    27    10    11    2
    28    10    12   am
    29    12    34    1
    30    34    35    1
    31    35    36    1
    32    35    37    1
    33    35    38    1
    34     9    13    1
    35    24    18   ar
    36     7     1   ar
    37    33    28   ar
    38    13     6    1
    39     4    14    1
    40     4    15    1
    41    12    16    1
@<TRIPOS>MOLECULE
*****
 38 41 0 0 0
SMALL
GASTEIGER

@<TRIPOS>ATOM
      1 C          61.8408   86.8795   10.1188 C.ar    1  UNL1        0.0856
      2 N          60.8221   87.1471    9.0507 N.ar    1  UNL1       -0.2142
      3 C          60.1970   88.5055    8.9339 C.ar    1  UNL1        0.2134
      4 N          59.1783   88.7731    7.8658 N.pl3   1  UNL1       -0.3275
      5 N          60.5904   89.5965    9.8852 N.ar    1  UNL1       -0.2169
      6 C          61.6091   89.3289   10.9533 C.ar    1  UNL1        0.0810
      7 C          62.2343   87.9704   11.0701 C.ar    1  UNL1        0.0309
      8 C          63.2028   88.0027   12.2150 C.3     1  UNL1        0.1248
      9 N          63.1763   89.3812   12.8058 N.am    1  UNL1       -0.2543
     10 C          63.9915   89.8566   13.9716 C.2     1  UNL1        0.3046
     11 O          64.9406   88.9179   14.6557 O.2     1  UNL1       -0.2526
     12 N          63.8578   91.2708   14.4534 N.am    1  UNL1       -0.2837
     13 C          62.1913   90.2009   12.0260 C.3     1  UNL1        0.1409
     14 H          58.9200   88.0571    7.2414 H       1  UNL1        0.1452
     15 H          58.7680   89.6647    7.7892 H       1  UNL1        0.1452
     16 H          63.2349   91.8870   14.0045 H       1  UNL1        0.1512
     17 C          63.1095   85.6008    7.7197 C.3     1  UNL1        0.0312
     18 C          63.1003   84.8816    9.0360 C.ar    1  UNL1       -0.0166
     19 C          63.7254   83.5231    9.1528 C.ar    1  UNL1        0.0074
     20 C          63.7161   82.8039   10.4691 C.ar    1  UNL1        0.0604
     21 CL         64.3412   81.4454   10.5859 Cl      1  UNL1       -0.0822
     22 C          63.0818   83.4432   11.6686 C.ar    1  UNL1        0.0483
     23 C          62.4567   84.8017   11.5518 C.ar    1  UNL1        0.1405
     24 C          62.4659   85.5209   10.2355 C.ar    1  UNL1        0.0476
     25 O          61.8223   85.4410   12.7513 O.3     1  UNL1       -0.4732
     26 C          62.4327   85.2586   14.1092 C.3     1  UNL1        0.2316
     27 C          62.0291   84.0927   14.9626 C.3     1  UNL1        0.1747
     28 N          62.4371   82.7024   14.5746 N.ar    1  UNL1       -0.2432
     29 C          61.5183   81.6104   14.1129 C.ar    1  UNL1        0.1264
     30 C          62.3489   80.3931   13.8332 C.ar    1  UNL1        0.1796
     31 F          61.8371   79.0686   13.3495 F       1  UNL1       -0.2008
     32 C          63.7810   80.7328   14.1221 C.ar    1  UNL1        0.1512
     33 N          63.8356   82.1600   14.5803 N.ar    1  UNL1       -0.1651
     34 C          64.6731   91.7462   15.6194 C.3     1  UNL1        0.1578
     35 C          65.9666   92.4686   15.3851 C.3     1  UNL1        0.2818
     36 C          67.2602   93.1910   15.1508 C.3     1  UNL1        0.0740
     37 F          65.8307   92.2337   13.9098 F       1  UNL1       -0.2025
     38 F          66.1027   92.7034   16.8603 F       1  UNL1       -0.2025
@<TRIPOS>BOND
     1    17    18    1
     2    18    19   ar
     3    19    20   ar
     4    20    21    1
     5    20    22   ar
     6    22    23   ar
     7    23    25    1
     8    25    26    1
     9    26    27    1
    10    27    28    1
    11    28    29   ar
    12    29    30   ar
    13    30    31    1
    14    30    32   ar
    15    32    33   ar
    16    23    24   ar
    17    24     1    1
    18     1     2   ar
    19     2     3   ar
    20     3     4    1
    21     3     5   ar
    22     5     6   ar
    23     6     7   ar
    24     7     8    1
    25     8     9    1
    26     9    10   am
    27    10    11    2
    28    10    12   am
    29    12    34    1
    30    34    35    1
    31    35    36    1
    32    35    37    1
    33    35    38    1
    34     9    13    1
    35    24    18   ar
    36     7     1   ar
    37    33    28   ar
    38    13     6    1
    39     4    14    1
    40     4    15    1
    41    12    16    1
@<TRIPOS>MOLECULE
*****
 38 41 0 0 0
SMALL
GASTEIGER

@<TRIPOS>ATOM
      1 C          62.5741   87.4133   12.3065 C.ar    1  UNL1        0.0856
      2 N          62.6435   86.3826   13.3941 N.ar    1  UNL1       -0.2142
      3 C          63.4716   86.6386   14.6182 C.ar    1  UNL1        0.2134
      4 N          63.5410   85.6079   15.7059 N.pl3   1  UNL1       -0.3275
      5 N          64.2304   87.9253   14.7549 N.ar    1  UNL1       -0.2169
      6 C          64.1610   88.9560   13.6673 C.ar    1  UNL1        0.0810
      7 C          63.3329   88.7000   12.4431 C.ar    1  UNL1        0.0309
      8 C          63.4555   89.8934   11.5426 C.3     1  UNL1        0.1248
      9 N          64.3594   90.8869   12.2104 N.am    1  UNL1       -0.2543
     10 C          64.7574   92.2249   11.6613 C.2     1  UNL1        0.3046
     11 O          64.2393   92.6722   10.3266 O.2     1  UNL1       -0.2526
     12 N          65.6736   93.1156   12.4470 N.am    1  UNL1       -0.2837
     13 C          64.7954   90.3076   13.5235 C.3     1  UNL1        0.1409
     14 H          63.0430   84.7634   15.6162 H       1  UNL1        0.1452
     15 H          64.0845   85.7759   16.5094 H       1  UNL1        0.1452
     16 H          66.0137   92.8220   13.3230 H       1  UNL1        0.1512
     17 C          60.1801   89.1268   11.7294 C.3     1  UNL1        0.0312
     18 C          60.5490   88.0140   10.7938 C.ar    1  UNL1       -0.0166
     19 C          59.7210   87.7579    9.5696 C.ar    1  UNL1        0.0074
     20 C          60.0899   86.6450    8.6339 C.ar    1  UNL1        0.0604
     21 CL         59.2618   86.3889    7.4097 Cl      1  UNL1       -0.0822
     22 C          61.2868   85.7883    8.9224 C.ar    1  UNL1        0.0483
     23 C          62.1149   86.0444   10.1466 C.ar    1  UNL1        0.1405
     24 C          61.7460   87.1573   11.0822 C.ar    1  UNL1        0.0476
     25 O          63.3119   85.1877   10.4351 O.3     1  UNL1       -0.4732
     26 C          63.6325   84.0231    9.5459 C.3     1  UNL1        0.2316
     27 C          64.0563   82.7153   10.1461 C.3     1  UNL1        0.1747
     28 N          63.7252   82.4038   11.5756 N.ar    1  UNL1       -0.2432
     29 C          64.3575   83.0291   12.7835 C.ar    1  UNL1        0.1264
     30 C          63.7268   82.4240   14.0025 C.ar    1  UNL1        0.1796
     31 F          64.0597   82.7593   15.4261 F       1  UNL1       -0.2008
     32 C          62.7047   81.4247   13.5479 C.ar    1  UNL1        0.1512
     33 N          62.7037   81.4122   12.0480 N.ar    1  UNL1       -0.1651
     34 C          66.0716   94.4535   11.8979 C.3     1  UNL1        0.1578
     35 C          66.7136   94.5483   10.5456 C.3     1  UNL1        0.2818
     36 C          67.3556   94.6431    9.1933 C.3     1  UNL1        0.0740
     37 F          67.4921   93.2975   10.8274 F       1  UNL1       -0.2025
     38 F          65.9351   95.7992   10.2637 F       1  UNL1       -0.2025
@<TRIPOS>BOND
     1    17    18    1
     2    18    19   ar
     3    19    20   ar
     4    20    21    1
     5    20    22   ar
     6    22    23   ar
     7    23    25    1
     8    25    26    1
     9    26    27    1
    10    27    28    1
    11    28    29   ar
    12    29    30   ar
    13    30    31    1
    14    30    32   ar
    15    32    33   ar
    16    23    24   ar
    17    24     1    1
    18     1     2   ar
    19     2     3   ar
    20     3     4    1
    21     3     5   ar
    22     5     6   ar
    23     6     7   ar
    24     7     8    1
    25     8     9    1
    26     9    10   am
    27    10    11    2
    28    10    12   am
    29    12    34    1
    30    34    35    1
    31    35    36    1
    32    35    37    1
    33    35    38    1
    34     9    13    1
    35    24    18   ar
    36     7     1   ar
    37    33    28   ar
    38    13     6    1
    39     4    14    1
    40     4    15    1
    41    12    16    1
@<TRIPOS>MOLECULE
*****
 38 41 0 0 0
SMALL
GASTEIGER

@<TRIPOS>ATOM
      1 C          60.8542   88.0745   10.7159 C.ar    1  UNL1        0.0856
      2 N          59.5773   87.8443   11.4686 N.ar    1  UNL1       -0.2142
      3 C          59.1706   88.7873   12.5618 C.ar    1  UNL1        0.2134
      4 N          57.8936   88.5571   13.3145 N.pl3   1  UNL1       -0.3275
      5 N          60.0407   89.9607   12.9023 N.ar    1  UNL1       -0.2169
      6 C          61.3176   90.1910   12.1497 C.ar    1  UNL1        0.0810
      7 C          61.7244   89.2479   11.0565 C.ar    1  UNL1        0.0309
      8 C          63.0290   89.7272   10.4923 C.3     1  UNL1        0.1248
      9 N          63.4285   90.9665   11.2369 N.am    1  UNL1       -0.2543
     10 C          64.6681   91.7769   10.9990 C.2     1  UNL1        0.3046
     11 O          65.6402   91.3654    9.9333 O.2     1  UNL1       -0.2526
     12 N          64.9357   92.9989   11.8268 N.am    1  UNL1       -0.2837
     13 C          62.3708   91.2532   12.2612 C.3     1  UNL1        0.1409
     14 H          57.3225   87.7870   13.0910 H       1  UNL1        0.1452
     15 H          57.6267   89.1761   14.0320 H       1  UNL1        0.1452
     16 H          64.2977   93.2690   12.5262 H       1  UNL1        0.1512
     17 C          59.5915   88.2887    8.0030 C.3     1  UNL1        0.0312
     18 C          60.6296   87.2385    8.2663 C.ar    1  UNL1       -0.0166
     19 C          61.0363   86.2952    7.1732 C.ar    1  UNL1        0.0074
     20 C          62.0744   85.2450    7.4365 C.ar    1  UNL1        0.0604
     21 CL         62.4811   84.3018    6.3434 Cl      1  UNL1       -0.0822
     22 C          62.7057   85.1378    8.7929 C.ar    1  UNL1        0.0483
     23 C          62.2990   86.0810    9.8860 C.ar    1  UNL1        0.1405
     24 C          61.2609   87.1313    9.6227 C.ar    1  UNL1        0.0476
     25 O          62.9303   85.9740   11.2425 O.3     1  UNL1       -0.4732
     26 C          62.8987   84.6702   11.9836 C.3     1  UNL1        0.2316
     27 C          63.8192   84.4460   13.1466 C.3     1  UNL1        0.1747
     28 N          63.7240   85.3244   14.3588 N.ar    1  UNL1       -0.2432
     29 C          63.2589   84.9005   15.7203 C.ar    1  UNL1        0.1264
     30 C          63.3246   86.0949   16.6253 C.ar    1  UNL1        0.1796
     31 F          62.9503   86.1225   18.0776 F       1  UNL1       -0.2008
     32 C          63.8304   87.2570   15.8229 C.ar    1  UNL1        0.1512
     33 N          64.0773   86.7807   14.4222 N.ar    1  UNL1       -0.1651
     34 C          66.1753   93.8093   11.5888 C.3     1  UNL1        0.1578
     35 C          66.3464   94.5572   10.2999 C.3     1  UNL1        0.2818
     36 C          66.5174   95.3052    9.0110 C.3     1  UNL1        0.0740
     37 F          65.0656   95.2943   10.5576 F       1  UNL1       -0.2025
     38 F          67.6271   93.8202   10.0421 F       1  UNL1       -0.2025
@<TRIPOS>BOND
     1    17    18    1
     2    18    19   ar
     3    19    20   ar
     4    20    21    1
     5    20    22   ar
     6    22    23   ar
     7    23    25    1
     8    25    26    1
     9    26    27    1
    10    27    28    1
    11    28    29   ar
    12    29    30   ar
    13    30    31    1
    14    30    32   ar
    15    32    33   ar
    16    23    24   ar
    17    24     1    1
    18     1     2   ar
    19     2     3   ar
    20     3     4    1
    21     3     5   ar
    22     5     6   ar
    23     6     7   ar
    24     7     8    1
    25     8     9    1
    26     9    10   am
    27    10    11    2
    28    10    12   am
    29    12    34    1
    30    34    35    1
    31    35    36    1
    32    35    37    1
    33    35    38    1
    34     9    13    1
    35    24    18   ar
    36     7     1   ar
    37    33    28   ar
    38    13     6    1
    39     4    14    1
    40     4    15    1
    41    12    16    1
