@<TRIPOS>MOLECULE
*****
 44 48 0 0 0
SMALL
GASTEIGER

@<TRIPOS>ATOM
      1 O          60.3216   90.3938   10.8492 O.2     1  UNL1       -0.2700
      2 C          61.2682   89.3356   10.3655 C.2     1  UNL1        0.2508
      3 N          62.7015   89.3527   10.8074 N.am    1  UNL1       -0.2927
      4 H          63.3228   88.6581   10.4899 H       1  UNL1        0.1502
      5 C          60.7815   88.2602    9.4399 C.ar    1  UNL1        0.1068
      6 C          59.6261   88.5275    8.5214 C.ar    1  UNL1        0.0108
      7 C          59.1394   87.4521    7.5958 C.ar    1  UNL1        0.0210
      8 C          59.8081   86.1095    7.5888 C.ar    1  UNL1        0.1021
      9 N          60.9635   85.8421    8.5073 N.ar    1  UNL1       -0.2097
     10 C          61.4502   86.9175    9.4328 C.ar    1  UNL1        0.2340
     11 O          62.6056   86.6502   10.3513 O.3     1  UNL1       -0.4351
     12 C          62.6933   85.3454   11.0860 C.ar    1  UNL1        0.1576
     13 C          62.2293   85.2536   12.5096 C.ar    1  UNL1        0.0384
     14 C          62.3171   83.9488   13.2443 C.ar    1  UNL1        0.0070
     15 C          62.8688   82.7359   12.5556 C.ar    1  UNL1        0.0725
     16 C          63.3327   82.8276   11.1321 C.ar    1  UNL1        0.0183
     17 C          63.2450   84.1324   10.3973 C.ar    1  UNL1        0.0921
     18 CL         63.7090   84.2242    8.9739 Cl      1  UNL1       -0.0791
     19 C          62.9565   81.4311   13.2903 C.3     1  UNL1        0.4186
     20 F          63.0442   80.1263   14.0251 F       1  UNL1       -0.1659
     21 F          62.8488   80.6915   11.9898 F       1  UNL1       -0.1659
     22 F          63.0642   82.1707   14.5908 F       1  UNL1       -0.1659
     23 C          63.1882   90.4280   11.7329 C.3     1  UNL1        0.1787
     24 C          64.0415   91.5428   11.2045 C.2     1  UNL1        0.2429
     25 O          63.7498   92.1372    9.8585 O.2     1  UNL1       -0.2732
     26 N          65.1863   92.0632   12.0221 N.am    1  UNL1       -0.3032
     27 H          65.4566   91.7407   12.9121 H       1  UNL1        0.1495
     28 C          66.3643   94.0243   10.6320 C.3     1  UNL1        0.0876
     29 C          67.3300   93.4659    9.8606 C.3     1  UNL1        0.0919
     30 N          67.9269   93.1730    9.3749 N.3     1  UNL1       -0.2713
     31 C          67.6952   94.6543    9.3310 C.3     1  UNL1        0.0722
     32 C          66.6272   95.2720   10.1841 C.3     1  UNL1        0.0191
     33 C          65.7909   94.4083   11.0811 C.3     1  UNL1        0.0221
     34 C          66.0226   92.9269   11.1250 C.3     1  UNL1        0.0191
     35 C          67.0906   92.3093   10.2719 C.3     1  UNL1        0.0722
     36 C          62.8217   90.3886   13.1870 C.3     1  UNL1        0.1714
     37 O          63.8543   90.7002   14.2294 O.3     1  UNL1       -0.3467
     38 C          63.7101   90.1481   15.6166 C.3     1  UNL1        0.1687
     39 C          63.7105   88.6644   15.8370 C.ar    1  UNL1        0.0073
     40 C          64.4263   87.7633   14.8747 C.ar    1  UNL1       -0.0019
     41 C          64.4267   86.2796   15.0952 C.ar    1  UNL1       -0.0002
     42 C          63.7112   85.6969   16.2779 C.ar    1  UNL1       -0.0000
     43 C          62.9955   86.5979   17.2401 C.ar    1  UNL1       -0.0002
     44 C          62.9951   88.0817   17.0196 C.ar    1  UNL1       -0.0019
@<TRIPOS>BOND
     1     1     2    2
     2     2     3   am
     3     3    23    1
     4    23    36    1
     5    36    37    1
     6    37    38    1
     7    38    39    1
     8    39    40   ar
     9    40    41   ar
    10    41    42   ar
    11    42    43   ar
    12    43    44   ar
    13    23    24    1
    14    24    25    2
    15    24    26   am
    16    28    26    1
    17    28    29    1
    18    29    30    1
    19    30    31    1
    20    31    32    1
    21    32    33    1
    22    33    34    1
    23    34    35    1
    24     2     5    1
    25     5     6   ar
    26     6     7   ar
    27     7     8   ar
    28     8     9   ar
    29     9    10   ar
    30    10    11    1
    31    11    12    1
    32    12    13   ar
    33    13    14   ar
    34    14    15   ar
    35    15    19    1
    36    19    20    1
    37    19    21    1
    38    19    22    1
    39    15    16   ar
    40    16    17   ar
    41    17    18    1
    42    44    39   ar
    43    33    28    1
    44    10     5   ar
    45    17    12   ar
    46    35    30    1
    47     3     4    1
    48    26    27    1
@<TRIPOS>MOLECULE
*****
 44 48 0 0 0
SMALL
GASTEIGER

@<TRIPOS>ATOM
      1 O          63.9074   88.3916   12.7560 O.2     1  UNL1       -0.2700
      2 C          62.9657   89.1466   11.8655 C.2     1  UNL1        0.2508
      3 N          63.0470   90.6422   11.7842 N.am    1  UNL1       -0.2927
      4 H          62.4288   91.1377   11.1997 H       1  UNL1        0.1502
      5 C          61.9426   88.4060   11.0563 C.ar    1  UNL1        0.1068
      6 C          60.8472   89.1592   10.3617 C.ar    1  UNL1        0.0108
      7 C          59.8241   88.4185    9.5524 C.ar    1  UNL1        0.0210
      8 C          59.8965   86.9247    9.4379 C.ar    1  UNL1        0.1021
      9 N          60.9920   86.1715   10.1326 N.ar    1  UNL1       -0.2097
     10 C          62.0150   86.9121   10.9418 C.ar    1  UNL1        0.2340
     11 O          63.1105   86.1588   11.6365 O.3     1  UNL1       -0.4351
     12 C          62.9036   84.7258   12.0283 C.ar    1  UNL1        0.1576
     13 C          62.4055   84.3884   13.4024 C.ar    1  UNL1        0.0384
     14 C          62.1987   82.9553   13.7942 C.ar    1  UNL1        0.0070
     15 C          62.4899   81.8597   12.8120 C.ar    1  UNL1        0.0725
     16 C          62.9879   82.1970   11.4380 C.ar    1  UNL1        0.0183
     17 C          63.1948   83.6301   11.0461 C.ar    1  UNL1        0.0921
     18 CL         63.6929   83.9675    9.6720 Cl      1  UNL1       -0.0791
     19 C          62.2830   80.4266   13.2039 C.3     1  UNL1        0.4186
     20 F          62.0761   78.9935   13.5957 F       1  UNL1       -0.1659
     21 F          62.8146   79.9858   11.8723 F       1  UNL1       -0.1659
     22 F          61.7514   80.8675   14.5354 F       1  UNL1       -0.1659
     23 C          64.0700   91.3828   12.5934 C.3     1  UNL1        0.1787
     24 C          65.0485   92.2935   11.9130 C.2     1  UNL1        0.2429
     25 O          66.2103   92.8531   12.6794 O.2     1  UNL1       -0.2732
     26 N          64.8654   92.6447   10.4663 N.am    1  UNL1       -0.3032
     27 H          64.1390   92.3300    9.8810 H       1  UNL1        0.1495
     28 C          66.8637   94.2789    9.7579 C.3     1  UNL1        0.0876
     29 C          66.5226   95.5385   10.1279 C.3     1  UNL1        0.0919
     30 N          66.3596   96.3189   10.3336 N.3     1  UNL1       -0.2713
     31 C          67.6725   96.0666    9.6535 C.3     1  UNL1        0.0722
     32 C          68.0497   94.6737    9.2444 C.3     1  UNL1        0.0191
     33 C          67.1140   93.5331    9.5153 C.3     1  UNL1        0.0221
     34 C          65.8011   93.7853   10.1954 C.3     1  UNL1        0.0191
     35 C          65.4239   95.1783   10.6045 C.3     1  UNL1        0.0722
     36 C          64.1146   91.2126   14.0831 C.3     1  UNL1        0.1714
     37 O          63.0183   90.4683   14.7861 O.3     1  UNL1       -0.3467
     38 C          63.2612   89.8831   16.1457 C.3     1  UNL1        0.1687
     39 C          63.3781   88.3970   16.3127 C.ar    1  UNL1        0.0073
     40 C          62.6834   87.7135   17.4530 C.ar    1  UNL1       -0.0019
     41 C          62.8003   86.2274   17.6199 C.ar    1  UNL1       -0.0002
     42 C          63.6119   85.4248   16.6466 C.ar    1  UNL1       -0.0000
     43 C          64.3065   86.1084   15.5064 C.ar    1  UNL1       -0.0002
     44 C          64.1896   87.5945   15.3394 C.ar    1  UNL1       -0.0019
@<TRIPOS>BOND
     1     1     2    2
     2     2     3   am
     3     3    23    1
     4    23    36    1
     5    36    37    1
     6    37    38    1
     7    38    39    1
     8    39    40   ar
     9    40    41   ar
    10    41    42   ar
    11    42    43   ar
    12    43    44   ar
    13    23    24    1
    14    24    25    2
    15    24    26   am
    16    28    26    1
    17    28    29    1
    18    29    30    1
    19    30    31    1
    20    31    32    1
    21    32    33    1
    22    33    34    1
    23    34    35    1
    24     2     5    1
    25     5     6   ar
    26     6     7   ar
    27     7     8   ar
    28     8     9   ar
    29     9    10   ar
    30    10    11    1
    31    11    12    1
    32    12    13   ar
    33    13    14   ar
    34    14    15   ar
    35    15    19    1
    36    19    20    1
    37    19    21    1
    38    19    22    1
    39    15    16   ar
    40    16    17   ar
    41    17    18    1
    42    44    39   ar
    43    33    28    1
    44    10     5   ar
    45    17    12   ar
    46    35    30    1
    47     3     4    1
    48    26    27    1
@<TRIPOS>MOLECULE
*****
 44 48 0 0 0
SMALL
GASTEIGER

@<TRIPOS>ATOM
      1 O          60.6313   90.8030   10.8066 O.2     1  UNL1       -0.2700
      2 C          61.4840   89.6460   10.3776 C.2     1  UNL1        0.2508
      3 N          62.9217   89.5768   10.7996 N.am    1  UNL1       -0.2927
      4 H          63.4814   88.8174   10.5180 H       1  UNL1        0.1502
      5 C          60.8990   88.5582    9.5265 C.ar    1  UNL1        0.1068
      6 C          59.7990   88.8741    8.5568 C.ar    1  UNL1        0.0108
      7 C          59.2140   87.7862    7.7058 C.ar    1  UNL1        0.0210
      8 C          59.7289   86.3824    7.8244 C.ar    1  UNL1        0.1021
      9 N          60.8289   86.0664    8.7941 N.ar    1  UNL1       -0.2097
     10 C          61.4139   87.1542    9.6451 C.ar    1  UNL1        0.2340
     11 O          62.5138   86.8383   10.6148 O.3     1  UNL1       -0.4351
     12 C          62.6309   85.4591   11.1928 C.ar    1  UNL1        0.1576
     13 C          62.2445   85.2089   12.6205 C.ar    1  UNL1        0.0384
     14 C          62.3616   83.8297   13.1985 C.ar    1  UNL1        0.0070
     15 C          62.8650   82.7007   12.3489 C.ar    1  UNL1        0.0725
     16 C          63.2513   82.9508   10.9213 C.ar    1  UNL1        0.0183
     17 C          63.1343   84.3301   10.3432 C.ar    1  UNL1        0.0921
     18 CL         63.5206   84.5802    8.9156 Cl      1  UNL1       -0.0791
     19 C          62.9820   81.3215   12.9269 C.3     1  UNL1        0.4186
     20 F          63.0991   79.9423   13.5050 F       1  UNL1       -0.1659
     21 F          63.1075   81.9083   14.3016 F       1  UNL1       -0.1659
     22 F          62.8565   80.7347   11.5522 F       1  UNL1       -0.1659
     23 C          63.5067   90.6646   11.6507 C.3     1  UNL1        0.1787
     24 C          64.3745   91.7185   11.0290 C.2     1  UNL1        0.2429
     25 O          63.8835   92.4880    9.8387 O.2     1  UNL1       -0.2732
     26 N          65.7330   92.0028   11.5976 N.am    1  UNL1       -0.3032
     27 H          66.1425   91.5541   12.3724 H       1  UNL1        0.1495
     28 C          66.8469   93.9466   10.1324 C.3     1  UNL1        0.0876
     29 C          66.6265   95.1248   10.7671 C.3     1  UNL1        0.0919
     30 N          66.5177   95.8630   11.1151 N.3     1  UNL1       -0.2713
     31 C          67.2756   95.8387    9.8209 C.3     1  UNL1        0.0722
     32 C          67.5193   94.5357    9.1190 C.3     1  UNL1        0.0191
     33 C          67.0051   93.2571    9.7112 C.3     1  UNL1        0.0221
     34 C          66.2472   93.2814   11.0054 C.3     1  UNL1        0.0191
     35 C          66.0035   94.5844   11.7074 C.3     1  UNL1        0.0722
     36 C          63.2241   90.6986   13.1234 C.3     1  UNL1        0.1714
     37 O          64.0973   91.5076   14.0362 O.3     1  UNL1       -0.3467
     38 C          65.2905   90.8744   14.6883 C.3     1  UNL1        0.1687
     39 C          66.5280   91.6851   14.9361 C.ar    1  UNL1        0.0073
     40 C          66.5544   92.6931   16.0466 C.ar    1  UNL1       -0.0019
     41 C          67.7919   93.5038   16.2944 C.ar    1  UNL1       -0.0002
     42 C          69.0031   93.3064   15.4317 C.ar    1  UNL1       -0.0000
     43 C          68.9766   92.2983   14.3212 C.ar    1  UNL1       -0.0002
     44 C          67.7391   91.4877   14.0735 C.ar    1  UNL1       -0.0019
@<TRIPOS>BOND
     1     1     2    2
     2     2     3   am
     3     3    23    1
     4    23    36    1
     5    36    37    1
     6    37    38    1
     7    38    39    1
     8    39    40   ar
     9    40    41   ar
    10    41    42   ar
    11    42    43   ar
    12    43    44   ar
    13    23    24    1
    14    24    25    2
    15    24    26   am
    16    28    26    1
    17    28    29    1
    18    29    30    1
    19    30    31    1
    20    31    32    1
    21    32    33    1
    22    33    34    1
    23    34    35    1
    24     2     5    1
    25     5     6   ar
    26     6     7   ar
    27     7     8   ar
    28     8     9   ar
    29     9    10   ar
    30    10    11    1
    31    11    12    1
    32    12    13   ar
    33    13    14   ar
    34    14    15   ar
    35    15    19    1
    36    19    20    1
    37    19    21    1
    38    19    22    1
    39    15    16   ar
    40    16    17   ar
    41    17    18    1
    42    44    39   ar
    43    33    28    1
    44    10     5   ar
    45    17    12   ar
    46    35    30    1
    47     3     4    1
    48    26    27    1
@<TRIPOS>MOLECULE
*****
 44 48 0 0 0
SMALL
GASTEIGER

@<TRIPOS>ATOM
      1 O          63.8493   90.5385   16.2339 O.2     1  UNL1       -0.2700
      2 C          63.6284   89.2765   15.4539 C.2     1  UNL1        0.2508
      3 N          63.7557   89.2865   13.9593 N.am    1  UNL1       -0.2927
      4 H          63.6107   88.4582   13.4473 H       1  UNL1        0.1502
      5 C          63.2803   88.0044   16.1684 C.ar    1  UNL1        0.1068
      6 C          62.8412   88.0455   17.6021 C.ar    1  UNL1        0.0108
      7 C          62.4930   86.7734   18.3166 C.ar    1  UNL1        0.0210
      8 C          62.5839   85.4602   17.5975 C.ar    1  UNL1        0.1021
      9 N          63.0230   85.4191   16.1637 N.ar    1  UNL1       -0.2097
     10 C          63.3712   86.6911   15.4492 C.ar    1  UNL1        0.2340
     11 O          63.8102   86.6500   14.0155 O.3     1  UNL1       -0.4351
     12 C          63.6718   85.3830   13.2248 C.ar    1  UNL1        0.1576
     13 C          62.5622   85.2398   12.2255 C.ar    1  UNL1        0.0384
     14 C          62.4238   83.9728   11.4348 C.ar    1  UNL1        0.0070
     15 C          63.3950   82.8487   11.6432 C.ar    1  UNL1        0.0725
     16 C          64.5045   82.9918   12.6424 C.ar    1  UNL1        0.0183
     17 C          64.6430   84.2589   13.4332 C.ar    1  UNL1        0.0921
     18 CL         65.7525   84.4020   14.4324 Cl      1  UNL1       -0.0791
     19 C          63.2565   81.5817   10.8525 C.3     1  UNL1        0.4186
     20 F          63.1181   80.3145   10.0618 F       1  UNL1       -0.1659
     21 F          62.4033   80.9970   11.9388 F       1  UNL1       -0.1659
     22 F          64.1098   82.1664    9.7662 F       1  UNL1       -0.1659
     23 C          64.1039   90.5586   13.2448 C.3     1  UNL1        0.1787
     24 C          65.3349   91.3234   13.6317 C.2     1  UNL1        0.2429
     25 O          65.5535   92.7100   13.1028 O.2     1  UNL1       -0.2732
     26 N          66.3472   90.7016   14.5474 N.am    1  UNL1       -0.3032
     27 H          66.2943   89.8024   14.9446 H       1  UNL1        0.1495
     28 C          68.3234   92.4705   14.9099 C.3     1  UNL1        0.0876
     29 C          67.9515   93.3119   15.9066 C.3     1  UNL1        0.0919
     30 N          67.7697   93.8467   16.5057 N.3     1  UNL1       -0.2713
     31 C          69.0979   94.0235   15.8315 C.3     1  UNL1        0.0722
     32 C          69.5092   93.0930   14.7293 C.3     1  UNL1        0.0191
     33 C          68.5923   91.9857   14.3012 C.3     1  UNL1        0.0221
     34 C          67.2641   91.8089   14.9754 C.3     1  UNL1        0.0191
     35 C          66.8528   92.7394   16.0776 C.3     1  UNL1        0.0722
     36 C          63.2210   91.0659   12.1433 C.3     1  UNL1        0.1714
     37 O          62.9988   90.2324   10.9161 O.3     1  UNL1       -0.3467
     38 C          61.6378   90.1691   10.2888 C.3     1  UNL1        0.1687
     39 C          61.2150   88.9422    9.5366 C.ar    1  UNL1        0.0073
     40 C          62.0142   87.6782    9.6535 C.ar    1  UNL1       -0.0019
     41 C          61.5913   86.4512    8.9013 C.ar    1  UNL1       -0.0002
     42 C          60.3693   86.4883    8.0322 C.ar    1  UNL1       -0.0000
     43 C          59.5702   87.7523    7.9153 C.ar    1  UNL1       -0.0002
     44 C          59.9930   88.9792    8.6675 C.ar    1  UNL1       -0.0019
@<TRIPOS>BOND
     1     1     2    2
     2     2     3   am
     3     3    23    1
     4    23    36    1
     5    36    37    1
     6    37    38    1
     7    38    39    1
     8    39    40   ar
     9    40    41   ar
    10    41    42   ar
    11    42    43   ar
    12    43    44   ar
    13    23    24    1
    14    24    25    2
    15    24    26   am
    16    28    26    1
    17    28    29    1
    18    29    30    1
    19    30    31    1
    20    31    32    1
    21    32    33    1
    22    33    34    1
    23    34    35    1
    24     2     5    1
    25     5     6   ar
    26     6     7   ar
    27     7     8   ar
    28     8     9   ar
    29     9    10   ar
    30    10    11    1
    31    11    12    1
    32    12    13   ar
    33    13    14   ar
    34    14    15   ar
    35    15    19    1
    36    19    20    1
    37    19    21    1
    38    19    22    1
    39    15    16   ar
    40    16    17   ar
    41    17    18    1
    42    44    39   ar
    43    33    28    1
    44    10     5   ar
    45    17    12   ar
    46    35    30    1
    47     3     4    1
    48    26    27    1
@<TRIPOS>MOLECULE
*****
 44 48 0 0 0
SMALL
GASTEIGER

@<TRIPOS>ATOM
      1 O          60.4120   89.1510   12.0367 O.2     1  UNL1       -0.2700
      2 C          61.3919   88.7543   10.9726 C.2     1  UNL1        0.2508
      3 N          62.8308   89.1621   11.0884 N.am    1  UNL1       -0.2927
      4 H          63.4739   88.9017   10.3899 H       1  UNL1        0.1502
      5 C          60.9330   87.9498    9.7928 C.ar    1  UNL1        0.1068
      6 C          59.7201   88.3765    9.0202 C.ar    1  UNL1        0.0108
      7 C          59.2611   87.5719    7.8402 C.ar    1  UNL1        0.0210
      8 C          60.0151   86.3408    7.4330 C.ar    1  UNL1        0.1021
      9 N          61.2279   85.9142    8.2056 N.ar    1  UNL1       -0.2097
     10 C          61.6869   86.7186    9.3854 C.ar    1  UNL1        0.2340
     11 O          62.8998   86.2920   10.1580 O.3     1  UNL1       -0.4351
     12 C          62.8758   85.0170   10.9478 C.ar    1  UNL1        0.1576
     13 C          62.3796   85.0208   12.3634 C.ar    1  UNL1        0.0384
     14 C          62.3556   83.7458   13.1531 C.ar    1  UNL1        0.0070
     15 C          62.8277   82.4669   12.5273 C.ar    1  UNL1        0.0725
     16 C          63.3239   82.4631   11.1118 C.ar    1  UNL1        0.0183
     17 C          63.3479   83.7381   10.3220 C.ar    1  UNL1        0.0921
     18 CL         63.8441   83.7343    8.9064 Cl      1  UNL1       -0.0791
     19 C          62.8037   81.1919   13.3170 C.3     1  UNL1        0.4186
     20 F          62.7797   79.9168   14.1068 F       1  UNL1       -0.1659
     21 F          61.3047   81.2367   13.3438 F       1  UNL1       -0.1659
     22 F          64.3028   81.1471   13.2903 F       1  UNL1       -0.1659
     23 C          63.2898   89.9666   12.2682 C.3     1  UNL1        0.1787
     24 C          63.1166   89.4269   13.6570 C.2     1  UNL1        0.2429
     25 O          62.0386   89.9738   14.5452 O.2     1  UNL1       -0.2732
     26 N          64.0215   88.3404   14.1577 N.am    1  UNL1       -0.3032
     27 H          64.7543   87.9184   13.6536 H       1  UNL1        0.1495
     28 C          63.2904   87.7522   16.6647 C.3     1  UNL1        0.0876
     29 C          63.2975   86.4021   16.7947 C.3     1  UNL1        0.0919
     30 N          63.2873   85.5886   16.9215 N.3     1  UNL1       -0.2713
     31 C          62.9083   86.4523   18.0878 C.3     1  UNL1        0.0722
     32 C          62.9005   87.9454   17.9441 C.3     1  UNL1        0.0191
     33 C          63.2715   88.5747   16.6341 C.3     1  UNL1        0.0221
     34 C          63.6504   87.7111   15.4677 C.3     1  UNL1        0.0191
     35 C          63.6583   86.2180   15.6114 C.3     1  UNL1        0.0722
     36 C          63.9219   91.3108   12.0593 C.3     1  UNL1        0.1714
     37 O          65.2346   91.6316   12.7104 O.3     1  UNL1       -0.3467
     38 C          65.8444   92.9913   12.5390 C.3     1  UNL1        0.1687
     39 C          66.5799   93.3296   11.2762 C.ar    1  UNL1        0.0073
     40 C          66.4216   94.6865   10.6567 C.ar    1  UNL1       -0.0019
     41 C          67.1572   95.0249    9.3940 C.ar    1  UNL1       -0.0002
     42 C          68.0510   94.0063    8.7508 C.ar    1  UNL1       -0.0000
     43 C          68.2092   92.6494    9.3703 C.ar    1  UNL1       -0.0002
     44 C          67.4736   92.3111   10.6330 C.ar    1  UNL1       -0.0019
@<TRIPOS>BOND
     1     1     2    2
     2     2     3   am
     3     3    23    1
     4    23    36    1
     5    36    37    1
     6    37    38    1
     7    38    39    1
     8    39    40   ar
     9    40    41   ar
    10    41    42   ar
    11    42    43   ar
    12    43    44   ar
    13    23    24    1
    14    24    25    2
    15    24    26   am
    16    28    26    1
    17    28    29    1
    18    29    30    1
    19    30    31    1
    20    31    32    1
    21    32    33    1
    22    33    34    1
    23    34    35    1
    24     2     5    1
    25     5     6   ar
    26     6     7   ar
    27     7     8   ar
    28     8     9   ar
    29     9    10   ar
    30    10    11    1
    31    11    12    1
    32    12    13   ar
    33    13    14   ar
    34    14    15   ar
    35    15    19    1
    36    19    20    1
    37    19    21    1
    38    19    22    1
    39    15    16   ar
    40    16    17   ar
    41    17    18    1
    42    44    39   ar
    43    33    28    1
    44    10     5   ar
    45    17    12   ar
    46    35    30    1
    47     3     4    1
    48    26    27    1
@<TRIPOS>MOLECULE
*****
 44 48 0 0 0
SMALL
GASTEIGER

@<TRIPOS>ATOM
      1 O          60.2686   88.8806   11.9041 O.2     1  UNL1       -0.2700
      2 C          61.2291   88.5562   10.7986 C.2     1  UNL1        0.2508
      3 N          62.6307   89.0888   10.8424 N.am    1  UNL1       -0.2927
      4 H          63.2611   88.8758   10.1169 H       1  UNL1        0.1502
      5 C          60.7881   87.6992    9.6493 C.ar    1  UNL1        0.1068
      6 C          59.5418   88.0460    8.8900 C.ar    1  UNL1        0.0108
      7 C          59.1008   87.1889    7.7407 C.ar    1  UNL1        0.0210
      8 C          59.9060   85.9850    7.3507 C.ar    1  UNL1        0.1021
      9 N          61.1522   85.6381    8.1099 N.ar    1  UNL1       -0.2097
     10 C          61.5933   86.4952    9.2592 C.ar    1  UNL1        0.2340
     11 O          62.8395   86.1483   10.0185 O.3     1  UNL1       -0.4351
     12 C          62.8786   84.9163   10.8733 C.ar    1  UNL1        0.1576
     13 C          62.3892   84.9707   12.2902 C.ar    1  UNL1        0.0384
     14 C          62.4282   83.7388   13.1450 C.ar    1  UNL1        0.0070
     15 C          62.9566   82.4523   12.5829 C.ar    1  UNL1        0.0725
     16 C          63.4460   82.3979   11.1661 C.ar    1  UNL1        0.0183
     17 C          63.4070   83.6299   10.3112 C.ar    1  UNL1        0.0921
     18 CL         63.8963   83.5754    8.8944 Cl      1  UNL1       -0.0791
     19 C          62.9956   81.2204   13.4377 C.3     1  UNL1        0.4186
     20 F          63.0346   79.9883   14.2925 F       1  UNL1       -0.1659
     21 F          62.9312   80.3647   12.2074 F       1  UNL1       -0.1659
     22 F          63.0600   82.0760   14.6680 F       1  UNL1       -0.1659
     23 C          63.0717   89.9458   11.9917 C.3     1  UNL1        0.1787
     24 C          62.9608   89.4317   13.3965 C.2     1  UNL1        0.2429
     25 O          61.7886   89.8215   14.2475 O.2     1  UNL1       -0.2732
     26 N          64.0221   88.5279   13.9504 N.am    1  UNL1       -0.3032
     27 H          64.8252   88.2168   13.4734 H       1  UNL1        0.1495
     28 C          63.3454   87.9108   16.4657 C.3     1  UNL1        0.0876
     29 C          63.4257   86.5635   16.6000 C.3     1  UNL1        0.0919
     30 N          63.4600   85.7511   16.7295 N.3     1  UNL1       -0.2713
     31 C          63.0457   86.5976   17.8964 C.3     1  UNL1        0.0722
     32 C          62.9569   88.0876   17.7479 C.3     1  UNL1        0.0191
     33 C          63.2823   88.7310   16.4326 C.3     1  UNL1        0.0221
     34 C          63.6966   87.8845   15.2657 C.3     1  UNL1        0.0191
     35 C          63.7855   86.3945   15.4141 C.3     1  UNL1        0.0722
     36 C          63.6237   91.3170   11.7363 C.3     1  UNL1        0.1714
     37 O          64.3533   92.0466   12.8251 O.3     1  UNL1       -0.3467
     38 C          65.7916   92.4289   12.6383 C.3     1  UNL1        0.1687
     39 C          66.7220   92.4460   13.8148 C.ar    1  UNL1        0.0073
     40 C          68.1751   92.1246   13.6266 C.ar    1  UNL1       -0.0019
     41 C          69.1055   92.1417   14.8031 C.ar    1  UNL1       -0.0002
     42 C          68.5827   92.4801   16.1678 C.ar    1  UNL1       -0.0000
     43 C          67.1297   92.8015   16.3559 C.ar    1  UNL1       -0.0002
     44 C          66.1994   92.7844   15.1794 C.ar    1  UNL1       -0.0019
@<TRIPOS>BOND
     1     1     2    2
     2     2     3   am
     3     3    23    1
     4    23    36    1
     5    36    37    1
     6    37    38    1
     7    38    39    1
     8    39    40   ar
     9    40    41   ar
    10    41    42   ar
    11    42    43   ar
    12    43    44   ar
    13    23    24    1
    14    24    25    2
    15    24    26   am
    16    28    26    1
    17    28    29    1
    18    29    30    1
    19    30    31    1
    20    31    32    1
    21    32    33    1
    22    33    34    1
    23    34    35    1
    24     2     5    1
    25     5     6   ar
    26     6     7   ar
    27     7     8   ar
    28     8     9   ar
    29     9    10   ar
    30    10    11    1
    31    11    12    1
    32    12    13   ar
    33    13    14   ar
    34    14    15   ar
    35    15    19    1
    36    19    20    1
    37    19    21    1
    38    19    22    1
    39    15    16   ar
    40    16    17   ar
    41    17    18    1
    42    44    39   ar
    43    33    28    1
    44    10     5   ar
    45    17    12   ar
    46    35    30    1
    47     3     4    1
    48    26    27    1
@<TRIPOS>MOLECULE
*****
 44 48 0 0 0
SMALL
GASTEIGER

@<TRIPOS>ATOM
      1 O          63.7866   91.5561   15.3730 O.2     1  UNL1       -0.2700
      2 C          65.0507   91.2141   14.6417 C.2     1  UNL1        0.2508
      3 N          65.0407   90.1515   13.5831 N.am    1  UNL1       -0.2927
      4 H          65.8705   89.9270   13.1031 H       1  UNL1        0.1502
      5 C          66.3249   91.9348   14.9690 C.ar    1  UNL1        0.1068
      6 C          66.5947   92.3799   16.3758 C.ar    1  UNL1        0.0108
      7 C          67.8689   93.1006   16.7031 C.ar    1  UNL1        0.0210
      8 C          68.8733   93.3761   15.6236 C.ar    1  UNL1        0.1021
      9 N          68.6034   92.9310   14.2168 N.ar    1  UNL1       -0.2097
     10 C          67.3293   92.2103   13.8895 C.ar    1  UNL1        0.2340
     11 O          67.0595   91.7652   12.4827 O.3     1  UNL1       -0.4351
     12 C          66.8680   92.7830   11.3977 C.ar    1  UNL1        0.1576
     13 C          65.9519   93.9503   11.6175 C.ar    1  UNL1        0.0384
     14 C          65.7604   94.9681   10.5325 C.ar    1  UNL1        0.0070
     15 C          66.4849   94.8187    9.2276 C.ar    1  UNL1        0.0725
     16 C          67.4009   93.6514    9.0077 C.ar    1  UNL1        0.0183
     17 C          67.5925   92.6335   10.0928 C.ar    1  UNL1        0.0921
     18 CL         68.5085   91.4662    9.8729 Cl      1  UNL1       -0.0791
     19 C          66.2934   95.8365    8.1425 C.3     1  UNL1        0.4186
     20 F          66.1019   96.8544    7.0575 F       1  UNL1       -0.1659
     21 F          65.4662   96.6729    9.0731 F       1  UNL1       -0.1659
     22 F          67.1206   95.0001    7.2119 F       1  UNL1       -0.1659
     23 C          63.7666   89.4308   13.2558 C.3     1  UNL1        0.1787
     24 C          63.5891   87.9983   13.6637 C.2     1  UNL1        0.2429
     25 O          63.0657   86.9969   12.6770 O.2     1  UNL1       -0.2732
     26 N          63.9350   87.5671   15.0581 N.am    1  UNL1       -0.3032
     27 H          64.2833   88.1461   15.7741 H       1  UNL1        0.1495
     28 C          63.4373   84.9442   15.2546 C.3     1  UNL1        0.0876
     29 C          64.4807   84.2796   14.6985 C.3     1  UNL1        0.0919
     30 N          65.0905   83.8329   14.3721 N.3     1  UNL1       -0.2713
     31 C          63.9374   83.0684   14.9516 C.3     1  UNL1        0.0722
     32 C          62.7835   83.8034   15.5665 C.3     1  UNL1        0.0191
     33 C          62.7827   85.3030   15.6020 C.3     1  UNL1        0.0221
     34 C          63.9358   86.0675   15.0226 C.3     1  UNL1        0.0191
     35 C          65.0897   85.3325   14.4076 C.3     1  UNL1        0.0722
     36 C          62.6698   90.1427   12.5207 C.3     1  UNL1        0.1714
     37 O          61.4594   89.3847   12.0622 O.3     1  UNL1       -0.3467
     38 C          60.9771   89.5255   10.6488 C.3     1  UNL1        0.1687
     39 C          60.9621   88.3329    9.7392 C.ar    1  UNL1        0.0073
     40 C          59.7327   88.0137    8.9411 C.ar    1  UNL1       -0.0019
     41 C          59.7177   86.8212    8.0315 C.ar    1  UNL1       -0.0002
     42 C          60.9320   85.9477    7.9198 C.ar    1  UNL1       -0.0000
     43 C          62.1614   86.2668    8.7178 C.ar    1  UNL1       -0.0002
     44 C          62.1764   87.4594    9.6275 C.ar    1  UNL1       -0.0019
@<TRIPOS>BOND
     1     1     2    2
     2     2     3   am
     3     3    23    1
     4    23    36    1
     5    36    37    1
     6    37    38    1
     7    38    39    1
     8    39    40   ar
     9    40    41   ar
    10    41    42   ar
    11    42    43   ar
    12    43    44   ar
    13    23    24    1
    14    24    25    2
    15    24    26   am
    16    28    26    1
    17    28    29    1
    18    29    30    1
    19    30    31    1
    20    31    32    1
    21    32    33    1
    22    33    34    1
    23    34    35    1
    24     2     5    1
    25     5     6   ar
    26     6     7   ar
    27     7     8   ar
    28     8     9   ar
    29     9    10   ar
    30    10    11    1
    31    11    12    1
    32    12    13   ar
    33    13    14   ar
    34    14    15   ar
    35    15    19    1
    36    19    20    1
    37    19    21    1
    38    19    22    1
    39    15    16   ar
    40    16    17   ar
    41    17    18    1
    42    44    39   ar
    43    33    28    1
    44    10     5   ar
    45    17    12   ar
    46    35    30    1
    47     3     4    1
    48    26    27    1
@<TRIPOS>MOLECULE
*****
 44 48 0 0 0
SMALL
GASTEIGER

@<TRIPOS>ATOM
      1 O          64.5522   92.4694   16.0790 O.2     1  UNL1       -0.2700
      2 C          65.4931   91.6168   15.2803 C.2     1  UNL1        0.2508
      3 N          64.9865   90.3856   14.5893 N.am    1  UNL1       -0.2927
      4 H          65.6040   89.8261   14.0651 H       1  UNL1        0.1502
      5 C          66.9404   91.9956   15.1726 C.ar    1  UNL1        0.1068
      6 C          67.7331   92.2892   16.4117 C.ar    1  UNL1        0.0108
      7 C          69.1805   92.6679   16.3039 C.ar    1  UNL1        0.0210
      8 C          69.8352   92.7530   14.9571 C.ar    1  UNL1        0.1021
      9 N          69.0426   92.4594   13.7179 N.ar    1  UNL1       -0.2097
     10 C          67.5952   92.0807   13.8257 C.ar    1  UNL1        0.2340
     11 O          66.8025   91.7871   12.5865 O.3     1  UNL1       -0.4351
     12 C          66.7434   92.7953   11.4775 C.ar    1  UNL1        0.1576
     13 C          65.7690   93.9334   11.5497 C.ar    1  UNL1        0.0384
     14 C          65.7099   94.9417   10.4407 C.ar    1  UNL1        0.0070
     15 C          66.6252   94.8118    9.2595 C.ar    1  UNL1        0.0725
     16 C          67.5996   93.6738    9.1872 C.ar    1  UNL1        0.0183
     17 C          67.6587   92.6654   10.2963 C.ar    1  UNL1        0.0921
     18 CL         68.6331   91.5274   10.2240 Cl      1  UNL1       -0.0791
     19 C          66.5661   95.8201    8.1505 C.3     1  UNL1        0.4186
     20 F          66.5071   96.8283    7.0414 F       1  UNL1       -0.1659
     21 F          67.6140   95.0543    7.3985 F       1  UNL1       -0.1659
     22 F          65.5182   96.5858    8.9025 F       1  UNL1       -0.1659
     23 C          63.5391   90.0069   14.6970 C.3     1  UNL1        0.1787
     24 C          62.7315   89.7697   13.4555 C.2     1  UNL1        0.2429
     25 O          61.2429   89.6095   13.5483 O.2     1  UNL1       -0.2732
     26 N          63.4124   89.6926   12.1212 N.am    1  UNL1       -0.3032
     27 H          64.3789   89.7846   11.9576 H       1  UNL1        0.1495
     28 C          61.5339   89.2607   10.2636 C.3     1  UNL1        0.0876
     29 C          61.2589   87.9326   10.2505 C.3     1  UNL1        0.0919
     30 N          61.0583   87.1353   10.2059 N.3     1  UNL1       -0.2713
     31 C          60.3376   88.0597    9.2701 C.3     1  UNL1        0.0722
     32 C          60.6417   89.5284    9.2846 C.3     1  UNL1        0.0191
     33 C          61.6667   90.0727   10.2350 C.3     1  UNL1        0.0221
     34 C          62.3875   89.1483   11.1708 C.3     1  UNL1        0.0191
     35 C          62.0833   87.6796   11.1563 C.3     1  UNL1        0.0722
     36 C          62.8993   89.8654   16.0464 C.3     1  UNL1        0.1714
     37 O          62.2945   88.5553   16.4560 O.3     1  UNL1       -0.3467
     38 C          63.1685   87.4613   16.9939 C.3     1  UNL1        0.1687
     39 C          63.4117   86.2261   16.1783 C.ar    1  UNL1        0.0073
     40 C          62.5116   85.0361   16.3329 C.ar    1  UNL1       -0.0019
     41 C          62.7548   83.8009   15.5173 C.ar    1  UNL1       -0.0002
     42 C          63.8980   83.7557   14.5472 C.ar    1  UNL1       -0.0000
     43 C          64.7980   84.9457   14.3927 C.ar    1  UNL1       -0.0002
     44 C          64.5548   86.1809   15.2082 C.ar    1  UNL1       -0.0019
@<TRIPOS>BOND
     1     1     2    2
     2     2     3   am
     3     3    23    1
     4    23    36    1
     5    36    37    1
     6    37    38    1
     7    38    39    1
     8    39    40   ar
     9    40    41   ar
    10    41    42   ar
    11    42    43   ar
    12    43    44   ar
    13    23    24    1
    14    24    25    2
    15    24    26   am
    16    28    26    1
    17    28    29    1
    18    29    30    1
    19    30    31    1
    20    31    32    1
    21    32    33    1
    22    33    34    1
    23    34    35    1
    24     2     5    1
    25     5     6   ar
    26     6     7   ar
    27     7     8   ar
    28     8     9   ar
    29     9    10   ar
    30    10    11    1
    31    11    12    1
    32    12    13   ar
    33    13    14   ar
    34    14    15   ar
    35    15    19    1
    36    19    20    1
    37    19    21    1
    38    19    22    1
    39    15    16   ar
    40    16    17   ar
    41    17    18    1
    42    44    39   ar
    43    33    28    1
    44    10     5   ar
    45    17    12   ar
    46    35    30    1
    47     3     4    1
    48    26    27    1
@<TRIPOS>MOLECULE
*****
 44 48 0 0 0
SMALL
GASTEIGER

@<TRIPOS>ATOM
      1 O          63.4189   91.2822   14.5280 O.2     1  UNL1       -0.2700
      2 C          63.0818   89.8534   14.2201 C.2     1  UNL1        0.2508
      3 N          62.6437   89.4672   12.8384 N.am    1  UNL1       -0.2927
      4 H          62.4225   88.5294   12.6363 H       1  UNL1        0.1502
      5 C          63.1828   88.8108   15.2937 C.ar    1  UNL1        0.1068
      6 C          62.8964   89.1736   16.7208 C.ar    1  UNL1        0.0108
      7 C          62.9975   88.1310   17.7944 C.ar    1  UNL1        0.0210
      8 C          63.3848   86.7256   17.4411 C.ar    1  UNL1        0.1021
      9 N          63.6711   86.3628   16.0141 N.ar    1  UNL1       -0.2097
     10 C          63.5702   87.4054   14.9404 C.ar    1  UNL1        0.2340
     11 O          63.8565   87.0426   13.5134 O.3     1  UNL1       -0.4351
     12 C          63.6426   85.6355   13.0398 C.ar    1  UNL1        0.1576
     13 C          62.5082   85.3213   12.1101 C.ar    1  UNL1        0.0384
     14 C          62.2943   83.9143   11.6365 C.ar    1  UNL1        0.0070
     15 C          63.2148   82.8213   12.0926 C.ar    1  UNL1        0.0725
     16 C          64.3492   83.1354   13.0223 C.ar    1  UNL1        0.0183
     17 C          64.5631   84.5426   13.4960 C.ar    1  UNL1        0.0921
     18 CL         65.6975   84.8567   14.4257 Cl      1  UNL1       -0.0791
     19 C          63.0009   81.4142   11.6191 C.3     1  UNL1        0.4186
     20 F          62.7870   80.0070   11.1455 F       1  UNL1       -0.1659
     21 F          62.4587   81.0428   12.9674 F       1  UNL1       -0.1659
     22 F          63.5431   81.7856   10.2708 F       1  UNL1       -0.1659
     23 C          62.5427   90.5098   11.7648 C.3     1  UNL1        0.1787
     24 C          63.7858   91.1503   11.2220 C.2     1  UNL1        0.2429
     25 O          63.9616   91.3104    9.7409 O.2     1  UNL1       -0.2732
     26 N          64.8530   91.6306   12.1602 N.am    1  UNL1       -0.3032
     27 H          64.8307   91.5710   13.1426 H       1  UNL1        0.1495
     28 C          66.8290   92.6789   10.6897 C.3     1  UNL1        0.0876
     29 C          66.4699   93.9418   10.3495 C.3     1  UNL1        0.0919
     30 N          66.2958   94.7127   10.1183 N.3     1  UNL1       -0.2713
     31 C          67.6128   94.1587    9.6617 C.3     1  UNL1        0.0722
     32 C          68.0099   92.7620   10.0380 C.3     1  UNL1        0.0191
     33 C          67.0899   91.9193   10.8708 C.3     1  UNL1        0.0221
     34 C          65.7729   92.4733   11.3274 C.3     1  UNL1        0.0191
     35 C          65.3758   93.8700   10.9511 C.3     1  UNL1        0.0722
     36 C          61.1986   90.9119   11.2338 C.3     1  UNL1        0.1714
     37 O          60.5565   90.1151   10.1370 O.3     1  UNL1       -0.3467
     38 C          60.1529   88.6914   10.3819 C.3     1  UNL1        0.1687
     39 C          60.5975   87.6130    9.4388 C.ar    1  UNL1        0.0073
     40 C          59.6159   86.9994    8.4847 C.ar    1  UNL1       -0.0019
     41 C          60.0605   85.9210    7.5417 C.ar    1  UNL1       -0.0002
     42 C          61.4867   85.4562    7.5527 C.ar    1  UNL1       -0.0000
     43 C          62.4682   86.0698    8.5067 C.ar    1  UNL1       -0.0002
     44 C          62.0236   87.1482    9.4497 C.ar    1  UNL1       -0.0019
@<TRIPOS>BOND
     1     1     2    2
     2     2     3   am
     3     3    23    1
     4    23    36    1
     5    36    37    1
     6    37    38    1
     7    38    39    1
     8    39    40   ar
     9    40    41   ar
    10    41    42   ar
    11    42    43   ar
    12    43    44   ar
    13    23    24    1
    14    24    25    2
    15    24    26   am
    16    28    26    1
    17    28    29    1
    18    29    30    1
    19    30    31    1
    20    31    32    1
    21    32    33    1
    22    33    34    1
    23    34    35    1
    24     2     5    1
    25     5     6   ar
    26     6     7   ar
    27     7     8   ar
    28     8     9   ar
    29     9    10   ar
    30    10    11    1
    31    11    12    1
    32    12    13   ar
    33    13    14   ar
    34    14    15   ar
    35    15    19    1
    36    19    20    1
    37    19    21    1
    38    19    22    1
    39    15    16   ar
    40    16    17   ar
    41    17    18    1
    42    44    39   ar
    43    33    28    1
    44    10     5   ar
    45    17    12   ar
    46    35    30    1
    47     3     4    1
    48    26    27    1
