@<TRIPOS>MOLECULE
*****
 40 46 0 0 0
SMALL
GASTEIGER

@<TRIPOS>ATOM
      1 C          60.4651   86.1523    8.3350 C.ar    1  UNL1        0.0146
      2 C          60.7584   85.7835    6.9110 C.ar    1  UNL1       -0.0011
      3 C          61.9076   84.8733    6.5935 C.ar    1  UNL1        0.0014
      4 C          62.7635   84.3319    7.7001 C.ar    1  UNL1        0.0206
      5 C          62.4701   84.7007    9.1241 C.ar    1  UNL1        0.0989
      6 C          61.3210   85.6109    9.4416 C.ar    1  UNL1        0.1511
      7 O          61.0276   85.9798   10.8657 O.3     1  UNL1       -0.4678
      8 C          61.8834   85.4385   11.9722 C.3     1  UNL1        0.2510
      9 C          63.0327   84.5282   11.6546 C.ar    1  UNL1        0.1087
     10 C          64.0430   83.8452   12.5280 C.ar    1  UNL1        0.1516
     11 N          64.9607   83.0542   11.6437 N.ar    1  UNL1       -0.2192
     12 C          64.5176   83.2484   10.2238 C.ar    1  UNL1        0.1828
     13 N          63.3260   84.1594   10.2306 N.ar    1  UNL1       -0.2851
     14 C          64.1217   83.9370   14.0231 C.2     1  UNL1        0.2649
     15 O          64.1650   82.6864   14.8501 O.2     1  UNL1       -0.2684
     16 N          64.1571   85.2796   14.6911 N.am    1  UNL1       -0.2996
     17 H          64.1287   86.1005   14.1483 H       1  UNL1        0.1498
     18 C          64.2359   85.3715   16.1862 C.3     1  UNL1        0.0897
     19 C          63.3984   86.3757   16.9211 C.3     1  UNL1        0.0196
     20 C          62.9976   87.7996   17.1701 C.3     1  UNL1        0.0017
     21 C          62.3486   86.6913   17.9450 C.3     1  UNL1        0.0017
     22 C          59.3158   87.0626    8.6526 C.3     1  UNL1        0.0468
     23 C          59.5373   88.5426    8.7543 C.3     1  UNL1        0.0770
     24 N          62.6642   90.1624   11.5559 N.pl3   1  UNL1       -0.3046
     25 C          61.2292   90.1010   11.9884 C.3     1  UNL1        0.1081
     26 C          60.1869   89.5610   11.0545 C.3     1  UNL1        0.0938
     27 N          60.5796   89.0825    9.6882 N.3     1  UNL1       -0.2695
     28 C          62.0146   89.1440    9.2558 C.3     1  UNL1        0.0938
     29 C          63.0569   89.6840   10.1896 C.3     1  UNL1        0.1081
     30 C          67.1479   95.3174   10.7993 C.3     1  UNL1        0.0521
     31 C          66.2875   94.1636   11.2219 C.ar    1  UNL1        0.0593
     32 C          65.2453   93.6237   10.2881 C.ar    1  UNL1        0.0148
     33 C          64.3849   92.4700   10.7107 C.ar    1  UNL1        0.0039
     34 C          64.5668   91.8561   12.0672 C.ar    1  UNL1        0.0310
     35 C          63.7064   90.7024   12.4898 C.ar    1  UNL1        0.0493
     36 C          63.8883   90.0885   13.8464 C.ar    1  UNL1        0.0146
     37 C          64.9306   90.6285   14.7802 C.ar    1  UNL1        0.0028
     38 C          65.7910   91.7822   14.3576 C.ar    1  UNL1        0.0192
     39 C          65.6091   92.3961   13.0011 C.ar    1  UNL1        0.0821
     40 N          66.4694   93.5498   12.5785 N.ar    1  UNL1       -0.2496
@<TRIPOS>BOND
     1    30    31    1
     2    31    32   ar
     3    32    33   ar
     4    33    34   ar
     5    34    35   ar
     6    35    24    1
     7    24    25    1
     8    25    26    1
     9    26    27    1
    10    27    23    1
    11    23    22    1
    12    22     1    1
    13     1     2   ar
    14     2     3   ar
    15     3     4   ar
    16     4     5   ar
    17     5     6   ar
    18     6     7    1
    19     7     8    1
    20     8     9    1
    21     9    10   ar
    22    10    14    1
    23    14    15    2
    24    14    16   am
    25    16    18    1
    26    18    19    1
    27    19    20    1
    28    20    21    1
    29    10    11   ar
    30    11    12   ar
    31    12    13   ar
    32    27    28    1
    33    28    29    1
    34    35    36   ar
    35    36    37   ar
    36    37    38   ar
    37    38    39   ar
    38    39    40   ar
    39    40    31   ar
    40    39    34   ar
    41    29    24    1
    42     6     1   ar
    43    13     9   ar
    44    13     5    1
    45    21    19    1
    46    16    17    1
@<TRIPOS>MOLECULE
*****
 40 46 0 0 0
SMALL
GASTEIGER

@<TRIPOS>ATOM
      1 C          60.7674   86.6430    8.8533 C.ar    1  UNL1        0.0146
      2 C          61.0021   86.2475    7.4256 C.ar    1  UNL1       -0.0011
      3 C          61.9900   85.1670    7.0994 C.ar    1  UNL1        0.0014
      4 C          62.7434   84.4821    8.2009 C.ar    1  UNL1        0.0206
      5 C          62.5087   84.8776    9.6286 C.ar    1  UNL1        0.0989
      6 C          61.5208   85.9580    9.9548 C.ar    1  UNL1        0.1511
      7 O          61.2861   86.3536   11.3826 O.3     1  UNL1       -0.4678
      8 C          62.0395   85.6686   12.4841 C.3     1  UNL1        0.2510
      9 C          63.0275   84.5881   12.1578 C.ar    1  UNL1        0.1087
     10 C          63.9111   83.7410   13.0247 C.ar    1  UNL1        0.1516
     11 N          64.6918   82.8218   12.1327 N.ar    1  UNL1       -0.2192
     12 C          64.2907   83.1010   10.7146 C.ar    1  UNL1        0.1828
     13 N          63.2621   84.1926   10.7301 N.ar    1  UNL1       -0.2851
     14 C          63.9986   83.8022   14.5209 C.2     1  UNL1        0.2649
     15 O          64.2834   82.5569   15.3072 O.2     1  UNL1       -0.2684
     16 N          63.8012   85.1087   15.2309 N.am    1  UNL1       -0.2996
     17 H          63.6143   85.9260   14.7149 H       1  UNL1        0.1498
     18 C          63.8887   85.1699   16.7271 C.3     1  UNL1        0.0897
     19 C          63.2524   86.3073   17.4697 C.3     1  UNL1        0.0196
     20 C          62.6858   86.8763   18.7367 C.3     1  UNL1        0.0017
     21 C          62.7168   87.7083   17.4889 C.3     1  UNL1        0.0017
     22 C          59.7794   87.7235    9.1796 C.3     1  UNL1        0.0468
     23 C          59.9154   88.5044   10.4531 C.3     1  UNL1        0.0770
     24 N          63.3968   91.2992   11.0180 N.pl3   1  UNL1       -0.3046
     25 C          62.7999   91.1107    9.6548 C.3     1  UNL1        0.1081
     26 C          61.6394   90.1791    9.4665 C.3     1  UNL1        0.0938
     27 N          61.0758   89.4360   10.6414 N.3     1  UNL1       -0.2695
     28 C          61.6728   89.6246   12.0045 C.3     1  UNL1        0.0938
     29 C          62.8333   90.5561   12.1928 C.3     1  UNL1        0.1081
     30 C          67.6717   92.1455   16.3339 C.3     1  UNL1        0.0521
     31 C          66.8931   92.1668   15.0519 C.ar    1  UNL1        0.0593
     32 C          65.7326   91.2352   14.8637 C.ar    1  UNL1        0.0148
     33 C          64.9540   91.2566   13.5818 C.ar    1  UNL1        0.0039
     34 C          65.3358   92.2095   12.4881 C.ar    1  UNL1        0.0310
     35 C          64.5572   92.2308   11.2062 C.ar    1  UNL1        0.0493
     36 C          64.9391   93.1838   10.1125 C.ar    1  UNL1        0.0146
     37 C          66.0995   94.1154   10.3008 C.ar    1  UNL1        0.0028
     38 C          66.8781   94.0941   11.5827 C.ar    1  UNL1        0.0192
     39 C          66.4963   93.1411   12.6764 C.ar    1  UNL1        0.0821
     40 N          67.2750   93.1198   13.9583 N.ar    1  UNL1       -0.2496
@<TRIPOS>BOND
     1    30    31    1
     2    31    32   ar
     3    32    33   ar
     4    33    34   ar
     5    34    35   ar
     6    35    24    1
     7    24    25    1
     8    25    26    1
     9    26    27    1
    10    27    23    1
    11    23    22    1
    12    22     1    1
    13     1     2   ar
    14     2     3   ar
    15     3     4   ar
    16     4     5   ar
    17     5     6   ar
    18     6     7    1
    19     7     8    1
    20     8     9    1
    21     9    10   ar
    22    10    14    1
    23    14    15    2
    24    14    16   am
    25    16    18    1
    26    18    19    1
    27    19    20    1
    28    20    21    1
    29    10    11   ar
    30    11    12   ar
    31    12    13   ar
    32    27    28    1
    33    28    29    1
    34    35    36   ar
    35    36    37   ar
    36    37    38   ar
    37    38    39   ar
    38    39    40   ar
    39    40    31   ar
    40    39    34   ar
    41    29    24    1
    42     6     1   ar
    43    13     9   ar
    44    13     5    1
    45    21    19    1
    46    16    17    1
@<TRIPOS>MOLECULE
*****
 40 46 0 0 0
SMALL
GASTEIGER

@<TRIPOS>ATOM
      1 C          60.0990   88.9197    8.3169 C.ar    1  UNL1        0.0146
      2 C          59.8145   87.5209    7.8562 C.ar    1  UNL1       -0.0011
      3 C          60.3978   86.3542    8.5967 C.ar    1  UNL1        0.0014
      4 C          61.2656   86.5863    9.7980 C.ar    1  UNL1        0.0206
      5 C          61.5500   87.9851   10.2588 C.ar    1  UNL1        0.0989
      6 C          60.9667   89.1518    9.5182 C.ar    1  UNL1        0.1511
      7 O          61.2511   90.5507    9.9790 O.3     1  UNL1       -0.4678
      8 C          62.1189   90.7828   11.1803 C.3     1  UNL1        0.2510
      9 C          62.7022   89.6160   11.9209 C.ar    1  UNL1        0.1087
     10 C          63.5869   89.5351   13.1295 C.ar    1  UNL1        0.1516
     11 N          63.8492   88.0862   13.4157 N.ar    1  UNL1       -0.2192
     12 C          63.1266   87.2717   12.3840 C.ar    1  UNL1        0.1828
     13 N          62.4178   88.2172   11.4601 N.ar    1  UNL1       -0.2851
     14 C          64.1163   90.6988   13.9141 C.2     1  UNL1        0.2649
     15 O          63.4169   91.1400   15.1656 O.2     1  UNL1       -0.2684
     16 N          65.3451   91.4213   13.4472 N.am    1  UNL1       -0.2996
     17 H          65.8042   91.1317   12.6258 H       1  UNL1        0.1498
     18 C          65.8745   92.5849   14.2318 C.3     1  UNL1        0.0897
     19 C          67.1961   92.4776   14.9331 C.3     1  UNL1        0.0196
     20 C          68.6918   92.3780   14.8778 C.3     1  UNL1        0.0017
     21 C          67.9895   92.3912   16.2032 C.3     1  UNL1        0.0017
     22 C          59.5156   90.0865    7.5764 C.3     1  UNL1        0.0468
     23 C          59.1021   89.9340    6.1426 C.3     1  UNL1        0.0770
     24 N          60.9217   92.5713    2.9830 N.pl3   1  UNL1       -0.3046
     25 C          61.7630   91.5401    3.6749 C.3     1  UNL1        0.1081
     26 C          61.1565   90.6609    4.7281 C.3     1  UNL1        0.0938
     27 N          59.7086   90.8131    5.0894 N.3     1  UNL1       -0.2695
     28 C          58.8673   91.8444    4.3975 C.3     1  UNL1        0.0938
     29 C          59.4738   92.7235    3.3444 C.3     1  UNL1        0.1081
     30 C          59.2093   93.5407   -3.6032 C.3     1  UNL1        0.0521
     31 C          59.7890   93.5181   -2.2199 C.ar    1  UNL1        0.0593
     32 C          59.1825   92.6390   -1.1667 C.ar    1  UNL1        0.0148
     33 C          59.7622   92.6165    0.2165 C.ar    1  UNL1        0.0039
     34 C          60.9485   93.4730    0.5466 C.ar    1  UNL1        0.0310
     35 C          61.5282   93.4504    1.9298 C.ar    1  UNL1        0.0493
     36 C          62.7146   94.3071    2.2599 C.ar    1  UNL1        0.0146
     37 C          63.3211   95.1862    1.2067 C.ar    1  UNL1        0.0028
     38 C          62.7414   95.2087   -0.1765 C.ar    1  UNL1        0.0192
     39 C          61.5551   94.3522   -0.5066 C.ar    1  UNL1        0.0821
     40 N          60.9754   94.3747   -1.8899 N.ar    1  UNL1       -0.2496
@<TRIPOS>BOND
     1    30    31    1
     2    31    32   ar
     3    32    33   ar
     4    33    34   ar
     5    34    35   ar
     6    35    24    1
     7    24    25    1
     8    25    26    1
     9    26    27    1
    10    27    23    1
    11    23    22    1
    12    22     1    1
    13     1     2   ar
    14     2     3   ar
    15     3     4   ar
    16     4     5   ar
    17     5     6   ar
    18     6     7    1
    19     7     8    1
    20     8     9    1
    21     9    10   ar
    22    10    14    1
    23    14    15    2
    24    14    16   am
    25    16    18    1
    26    18    19    1
    27    19    20    1
    28    20    21    1
    29    10    11   ar
    30    11    12   ar
    31    12    13   ar
    32    27    28    1
    33    28    29    1
    34    35    36   ar
    35    36    37   ar
    36    37    38   ar
    37    38    39   ar
    38    39    40   ar
    39    40    31   ar
    40    39    34   ar
    41    29    24    1
    42     6     1   ar
    43    13     9   ar
    44    13     5    1
    45    21    19    1
    46    16    17    1
@<TRIPOS>MOLECULE
*****
 40 46 0 0 0
SMALL
GASTEIGER

@<TRIPOS>ATOM
      1 C          59.6922   88.9534    7.7556 C.ar    1  UNL1        0.0146
      2 C          59.2461   87.6929    7.0759 C.ar    1  UNL1       -0.0011
      3 C          59.6548   86.3589    7.6266 C.ar    1  UNL1        0.0014
      4 C          60.5097   86.2854    8.8570 C.ar    1  UNL1        0.0206
      5 C          60.9558   87.5459    9.5366 C.ar    1  UNL1        0.0989
      6 C          60.5471   88.8799    8.9859 C.ar    1  UNL1        0.1511
      7 O          60.9932   90.1406    9.6656 O.3     1  UNL1       -0.4678
      8 C          61.8481   90.0671   10.8960 C.3     1  UNL1        0.2510
      9 C          62.2569   88.7330   11.4467 C.ar    1  UNL1        0.1087
     10 C          63.0886   88.3497   12.6346 C.ar    1  UNL1        0.1516
     11 N          63.1564   86.8522   12.6892 N.ar    1  UNL1       -0.2192
     12 C          62.3667   86.3101   11.5349 C.ar    1  UNL1        0.1828
     13 N          61.8107   87.4724   10.7670 N.ar    1  UNL1       -0.2851
     14 C          63.7383   89.2974   13.5988 C.2     1  UNL1        0.2649
     15 O          63.3648   89.2631   15.0511 O.2     1  UNL1       -0.2684
     16 N          64.7616   90.2795   13.1105 N.am    1  UNL1       -0.2996
     17 H          65.0068   90.3021   12.1573 H       1  UNL1        0.1498
     18 C          65.4114   91.2273   14.0747 C.3     1  UNL1        0.0897
     19 C          65.8927   92.5665   13.6006 C.3     1  UNL1        0.0196
     20 C          66.4745   93.9171   13.8965 C.3     1  UNL1        0.0017
     21 C          66.1448   93.5356   12.4838 C.3     1  UNL1        0.0017
     22 C          59.2835   90.2875    7.2049 C.3     1  UNL1        0.0468
     23 C          58.8527   90.4078    5.7731 C.3     1  UNL1        0.0770
     24 N          61.5257   92.4485    2.7831 N.pl3   1  UNL1       -0.3046
     25 C          62.0964   91.4352    3.7303 C.3     1  UNL1        0.1081
     26 C          61.2054   90.7549    4.7270 C.3     1  UNL1        0.0938
     27 N          59.7437   91.0880    4.7765 N.3     1  UNL1       -0.2695
     28 C          59.1730   92.1015    3.8292 C.3     1  UNL1        0.0938
     29 C          60.0640   92.7817    2.8325 C.3     1  UNL1        0.1081
     30 C          60.3886   94.3103   -3.7354 C.3     1  UNL1        0.0521
     31 C          60.8956   94.0150   -2.3549 C.ar    1  UNL1        0.0593
     32 C          60.0046   93.3347   -1.3583 C.ar    1  UNL1        0.0148
     33 C          60.5116   93.0393    0.0222 C.ar    1  UNL1        0.0039
     34 C          61.9097   93.4242    0.4060 C.ar    1  UNL1        0.0310
     35 C          62.4167   93.1288    1.7864 C.ar    1  UNL1        0.0493
     36 C          63.8149   93.5136    2.1702 C.ar    1  UNL1        0.0146
     37 C          64.7058   94.1939    1.1736 C.ar    1  UNL1        0.0028
     38 C          64.1988   94.4893   -0.2069 C.ar    1  UNL1        0.0192
     39 C          62.8008   94.1044   -0.5907 C.ar    1  UNL1        0.0821
     40 N          62.2937   94.3998   -1.9712 N.ar    1  UNL1       -0.2496
@<TRIPOS>BOND
     1    30    31    1
     2    31    32   ar
     3    32    33   ar
     4    33    34   ar
     5    34    35   ar
     6    35    24    1
     7    24    25    1
     8    25    26    1
     9    26    27    1
    10    27    23    1
    11    23    22    1
    12    22     1    1
    13     1     2   ar
    14     2     3   ar
    15     3     4   ar
    16     4     5   ar
    17     5     6   ar
    18     6     7    1
    19     7     8    1
    20     8     9    1
    21     9    10   ar
    22    10    14    1
    23    14    15    2
    24    14    16   am
    25    16    18    1
    26    18    19    1
    27    19    20    1
    28    20    21    1
    29    10    11   ar
    30    11    12   ar
    31    12    13   ar
    32    27    28    1
    33    28    29    1
    34    35    36   ar
    35    36    37   ar
    36    37    38   ar
    37    38    39   ar
    38    39    40   ar
    39    40    31   ar
    40    39    34   ar
    41    29    24    1
    42     6     1   ar
    43    13     9   ar
    44    13     5    1
    45    21    19    1
    46    16    17    1
@<TRIPOS>MOLECULE
*****
 40 46 0 0 0
SMALL
GASTEIGER

@<TRIPOS>ATOM
      1 C          63.0304   84.0603   14.3290 C.ar    1  UNL1        0.0146
      2 C          63.9955   82.9124   14.2975 C.ar    1  UNL1       -0.0011
      3 C          64.5465   82.4317   12.9878 C.ar    1  UNL1        0.0014
      4 C          64.1325   83.0989   11.7097 C.ar    1  UNL1        0.0206
      5 C          63.1675   84.2468   11.7413 C.ar    1  UNL1        0.0989
      6 C          62.6164   84.7274   13.0510 C.ar    1  UNL1        0.1511
      7 O          61.6513   85.8754   13.0826 O.3     1  UNL1       -0.4678
      8 C          61.2374   86.5426   11.8045 C.3     1  UNL1        0.2510
      9 C          61.7885   86.0618   10.4948 C.ar    1  UNL1        0.1087
     10 C          61.5655   86.5190    9.0837 C.ar    1  UNL1        0.1516
     11 N          62.3928   85.6536    8.1800 N.ar    1  UNL1       -0.2192
     12 C          63.1270   84.6617    9.0326 C.ar    1  UNL1        0.1828
     13 N          62.7535   84.9140   10.4633 N.ar    1  UNL1       -0.2851
     14 C          60.6721   87.6440    8.6521 C.2     1  UNL1        0.2649
     15 O          60.8777   89.0212    9.2097 O.2     1  UNL1       -0.2684
     16 N          59.5731   87.3917    7.6629 N.am    1  UNL1       -0.2996
     17 H          59.4382   86.4877    7.2969 H       1  UNL1        0.1498
     18 C          58.6798   88.5166    7.2313 C.3     1  UNL1        0.0897
     19 C          59.2089   89.5898    6.3267 C.3     1  UNL1        0.0196
     20 C          58.9855   90.8305    5.5139 C.3     1  UNL1        0.0017
     21 C          60.3488   90.2078    5.5726 C.3     1  UNL1        0.0017
     22 C          62.4793   84.5410   15.6388 C.3     1  UNL1        0.0468
     23 C          63.1795   85.6334   16.3914 C.3     1  UNL1        0.0770
     24 N          64.3483   89.4301   14.2774 N.pl3   1  UNL1       -0.3046
     25 C          63.5785   89.4941   15.5632 C.3     1  UNL1        0.1081
     26 C          63.1888   88.2285   16.2679 C.3     1  UNL1        0.0938
     27 N          63.5691   86.8990   15.6868 N.3     1  UNL1       -0.2695
     28 C          64.3390   86.8350   14.4009 C.3     1  UNL1        0.0938
     29 C          64.7286   88.1006   13.6963 C.3     1  UNL1        0.1081
     30 C          68.9946   94.2319   15.8914 C.3     1  UNL1        0.0521
     31 C          67.9305   93.3478   15.3117 C.ar    1  UNL1        0.0593
     32 C          67.5409   92.0823   16.0164 C.ar    1  UNL1        0.0148
     33 C          66.4767   91.1982   15.4367 C.ar    1  UNL1        0.0039
     34 C          65.8021   91.5797   14.1525 C.ar    1  UNL1        0.0310
     35 C          64.7379   90.6957   13.5728 C.ar    1  UNL1        0.0493
     36 C          64.0633   91.0772   12.2885 C.ar    1  UNL1        0.0146
     37 C          64.4529   92.3428   11.5839 C.ar    1  UNL1        0.0028
     38 C          65.5171   93.2269   12.1635 C.ar    1  UNL1        0.0192
     39 C          66.1917   92.8453   13.4478 C.ar    1  UNL1        0.0821
     40 N          67.2559   93.7294   14.0274 N.ar    1  UNL1       -0.2496
@<TRIPOS>BOND
     1    30    31    1
     2    31    32   ar
     3    32    33   ar
     4    33    34   ar
     5    34    35   ar
     6    35    24    1
     7    24    25    1
     8    25    26    1
     9    26    27    1
    10    27    23    1
    11    23    22    1
    12    22     1    1
    13     1     2   ar
    14     2     3   ar
    15     3     4   ar
    16     4     5   ar
    17     5     6   ar
    18     6     7    1
    19     7     8    1
    20     8     9    1
    21     9    10   ar
    22    10    14    1
    23    14    15    2
    24    14    16   am
    25    16    18    1
    26    18    19    1
    27    19    20    1
    28    20    21    1
    29    10    11   ar
    30    11    12   ar
    31    12    13   ar
    32    27    28    1
    33    28    29    1
    34    35    36   ar
    35    36    37   ar
    36    37    38   ar
    37    38    39   ar
    38    39    40   ar
    39    40    31   ar
    40    39    34   ar
    41    29    24    1
    42     6     1   ar
    43    13     9   ar
    44    13     5    1
    45    21    19    1
    46    16    17    1
@<TRIPOS>MOLECULE
*****
 40 46 0 0 0
SMALL
GASTEIGER

@<TRIPOS>ATOM
      1 C          60.5589   88.7039    8.9116 C.ar    1  UNL1        0.0146
      2 C          60.3307   87.2733    8.5227 C.ar    1  UNL1       -0.0011
      3 C          60.9382   86.1690    9.3360 C.ar    1  UNL1        0.0014
      4 C          61.7739   86.4952   10.5381 C.ar    1  UNL1        0.0206
      5 C          62.0021   87.9258   10.9271 C.ar    1  UNL1        0.0989
      6 C          61.3946   89.0301   10.1138 C.ar    1  UNL1        0.1511
      7 O          61.6228   90.4608   10.5027 O.3     1  UNL1       -0.4678
      8 C          62.4585   90.7871   11.7049 C.3     1  UNL1        0.2510
      9 C          63.0660   89.6827   12.5181 C.ar    1  UNL1        0.1087
     10 C          63.9289   89.6976   13.7449 C.ar    1  UNL1        0.1516
     11 N          64.2340   88.2761   14.1143 N.ar    1  UNL1       -0.2192
     12 C          63.5597   87.3828   13.1157 C.ar    1  UNL1        0.1828
     13 N          62.8378   88.2521   12.1292 N.ar    1  UNL1       -0.2851
     14 C          64.4034   90.9194   14.4744 C.2     1  UNL1        0.2649
     15 O          63.5908   91.4822   15.6025 O.2     1  UNL1       -0.2684
     16 N          65.6906   91.5783   14.0755 N.am    1  UNL1       -0.2996
     17 H          66.2239   91.2089   13.3350 H       1  UNL1        0.1498
     18 C          66.1651   92.8001   14.8049 C.3     1  UNL1        0.0897
     19 C          67.5243   92.8143   15.4392 C.3     1  UNL1        0.0196
     20 C          68.5417   92.1865   16.3451 C.3     1  UNL1        0.0017
     21 C          68.8611   93.4668   15.6319 C.3     1  UNL1        0.0017
     22 C          59.9515   89.8083    8.0984 C.3     1  UNL1        0.0468
     23 C          59.2962   89.4993    6.7849 C.3     1  UNL1        0.0770
     24 N          59.9233   92.2265    3.2609 N.pl3   1  UNL1       -0.3046
     25 C          58.5663   92.1138    3.8899 C.3     1  UNL1        0.1081
     26 C          58.3572   91.2048    5.0646 C.3     1  UNL1        0.0938
     27 N          59.5052   90.4083    5.6103 N.3     1  UNL1       -0.2695
     28 C          60.8623   90.5210    4.9812 C.3     1  UNL1        0.0938
     29 C          61.0713   91.4300    3.8065 C.3     1  UNL1        0.1081
     30 C          65.6789   94.8451    0.5653 C.3     1  UNL1        0.0521
     31 C          64.2923   94.4177    0.9455 C.ar    1  UNL1        0.0593
     32 C          64.0832   93.5086    2.1202 C.ar    1  UNL1        0.0148
     33 C          62.6966   93.0812    2.5004 C.ar    1  UNL1        0.0039
     34 C          61.5190   93.5629    1.7060 C.ar    1  UNL1        0.0310
     35 C          60.1323   93.1355    2.0862 C.ar    1  UNL1        0.0493
     36 C          58.9547   93.6172    1.2917 C.ar    1  UNL1        0.0146
     37 C          59.1637   94.5262    0.1170 C.ar    1  UNL1        0.0028
     38 C          60.5504   94.9536   -0.2632 C.ar    1  UNL1        0.0192
     39 C          61.7280   94.4720    0.5312 C.ar    1  UNL1        0.0821
     40 N          63.1146   94.8994    0.1510 N.ar    1  UNL1       -0.2496
@<TRIPOS>BOND
     1    30    31    1
     2    31    32   ar
     3    32    33   ar
     4    33    34   ar
     5    34    35   ar
     6    35    24    1
     7    24    25    1
     8    25    26    1
     9    26    27    1
    10    27    23    1
    11    23    22    1
    12    22     1    1
    13     1     2   ar
    14     2     3   ar
    15     3     4   ar
    16     4     5   ar
    17     5     6   ar
    18     6     7    1
    19     7     8    1
    20     8     9    1
    21     9    10   ar
    22    10    14    1
    23    14    15    2
    24    14    16   am
    25    16    18    1
    26    18    19    1
    27    19    20    1
    28    20    21    1
    29    10    11   ar
    30    11    12   ar
    31    12    13   ar
    32    27    28    1
    33    28    29    1
    34    35    36   ar
    35    36    37   ar
    36    37    38   ar
    37    38    39   ar
    38    39    40   ar
    39    40    31   ar
    40    39    34   ar
    41    29    24    1
    42     6     1   ar
    43    13     9   ar
    44    13     5    1
    45    21    19    1
    46    16    17    1
@<TRIPOS>MOLECULE
*****
 40 46 0 0 0
SMALL
GASTEIGER

@<TRIPOS>ATOM
      1 C          63.5853   90.3531   15.8168 C.ar    1  UNL1        0.0146
      2 C          64.8450   91.0971   16.1474 C.ar    1  UNL1       -0.0011
      3 C          65.6212   91.7782   15.0596 C.ar    1  UNL1        0.0014
      4 C          65.1377   91.7153   13.6410 C.ar    1  UNL1        0.0206
      5 C          63.8779   90.9713   13.3104 C.ar    1  UNL1        0.0989
      6 C          63.1017   90.2902   14.3983 C.ar    1  UNL1        0.1511
      7 O          61.8418   89.5461   14.0677 O.3     1  UNL1       -0.4678
      8 C          61.3583   89.4832   12.6492 C.3     1  UNL1        0.2510
      9 C          62.1345   90.1644   11.5613 C.ar    1  UNL1        0.1087
     10 C          61.9059   90.2739   10.0829 C.ar    1  UNL1        0.1516
     11 N          63.0244   91.0856    9.4998 N.ar    1  UNL1       -0.2192
     12 C          63.9443   91.4777   10.6178 C.ar    1  UNL1        0.1828
     13 N          63.3943   90.9084   11.8919 N.ar    1  UNL1       -0.2851
     14 C          60.7600   89.6765    9.3213 C.2     1  UNL1        0.2649
     15 O          59.8466   88.6924    9.9901 O.2     1  UNL1       -0.2684
     16 N          60.5274   90.0634    7.8908 N.am    1  UNL1       -0.2996
     17 H          61.1268   90.7093    7.4518 H       1  UNL1        0.1498
     18 C          59.3815   89.4660    7.1292 C.3     1  UNL1        0.0897
     19 C          58.6632   90.2802    6.0942 C.3     1  UNL1        0.0196
     20 C          58.6882   91.3125    5.0062 C.3     1  UNL1        0.0017
     21 C          57.3941   90.6581    5.3895 C.3     1  UNL1        0.0017
     22 C          62.8090   89.6719   16.9047 C.3     1  UNL1        0.0468
     23 C          63.2148   88.3059   17.3731 C.3     1  UNL1        0.0770
     24 N          63.3232   84.8712   14.4679 N.pl3   1  UNL1       -0.3046
     25 C          64.2559   86.0326   14.2913 C.3     1  UNL1        0.1081
     26 C          64.2198   87.1775   15.2597 C.3     1  UNL1        0.0938
     27 N          63.2510   87.1610   16.4047 N.3     1  UNL1       -0.2695
     28 C          62.3183   85.9996   16.5814 C.3     1  UNL1        0.0938
     29 C          62.3544   84.8547   15.6130 C.3     1  UNL1        0.1081
     30 C          62.7504   84.7505    7.6190 C.3     1  UNL1        0.0521
     31 C          62.9027   84.4944    9.0892 C.ar    1  UNL1        0.0593
     32 C          62.8665   85.6393   10.0576 C.ar    1  UNL1        0.0148
     33 C          63.0187   85.3833   11.5277 C.ar    1  UNL1        0.0039
     34 C          63.2071   83.9823   12.0294 C.ar    1  UNL1        0.0310
     35 C          63.3594   83.7263   13.4995 C.ar    1  UNL1        0.0493
     36 C          63.5478   82.3252   14.0012 C.ar    1  UNL1        0.0146
     37 C          63.5840   81.1803   13.0328 C.ar    1  UNL1        0.0028
     38 C          63.4317   81.4363   11.5627 C.ar    1  UNL1        0.0192
     39 C          63.2433   82.8373   11.0610 C.ar    1  UNL1        0.0821
     40 N          63.0911   83.0934    9.5909 N.ar    1  UNL1       -0.2496
@<TRIPOS>BOND
     1    30    31    1
     2    31    32   ar
     3    32    33   ar
     4    33    34   ar
     5    34    35   ar
     6    35    24    1
     7    24    25    1
     8    25    26    1
     9    26    27    1
    10    27    23    1
    11    23    22    1
    12    22     1    1
    13     1     2   ar
    14     2     3   ar
    15     3     4   ar
    16     4     5   ar
    17     5     6   ar
    18     6     7    1
    19     7     8    1
    20     8     9    1
    21     9    10   ar
    22    10    14    1
    23    14    15    2
    24    14    16   am
    25    16    18    1
    26    18    19    1
    27    19    20    1
    28    20    21    1
    29    10    11   ar
    30    11    12   ar
    31    12    13   ar
    32    27    28    1
    33    28    29    1
    34    35    36   ar
    35    36    37   ar
    36    37    38   ar
    37    38    39   ar
    38    39    40   ar
    39    40    31   ar
    40    39    34   ar
    41    29    24    1
    42     6     1   ar
    43    13     9   ar
    44    13     5    1
    45    21    19    1
    46    16    17    1
@<TRIPOS>MOLECULE
*****
 40 46 0 0 0
SMALL
GASTEIGER

@<TRIPOS>ATOM
      1 C          59.5587   90.4957    5.8126 C.ar    1  UNL1        0.0146
      2 C          58.0711   90.5439    5.9992 C.ar    1  UNL1       -0.0011
      3 C          57.2245   91.3595    5.0675 C.ar    1  UNL1        0.0014
      4 C          57.8655   92.1267    3.9492 C.ar    1  UNL1        0.0206
      5 C          59.3530   92.0784    3.7626 C.ar    1  UNL1        0.0989
      6 C          60.1996   91.2629    4.6943 C.ar    1  UNL1        0.1511
      7 O          61.6872   91.2146    4.5078 O.3     1  UNL1       -0.4678
      8 C          62.3281   91.9819    3.3895 C.3     1  UNL1        0.2510
      9 C          61.4815   92.7974    2.4578 C.ar    1  UNL1        0.1087
     10 C          61.8282   93.6516    1.2746 C.ar    1  UNL1        0.1516
     11 N          60.5550   94.2278    0.7298 N.ar    1  UNL1       -0.2192
     12 C          59.4213   93.7297    1.5764 C.ar    1  UNL1        0.1828
     13 N          59.9939   92.8457    2.6444 N.ar    1  UNL1       -0.2851
     14 C          63.2063   93.8880    0.7314 C.2     1  UNL1        0.2649
     15 O          64.3932   93.2564    1.3964 O.2     1  UNL1       -0.2684
     16 N          63.3974   94.7562   -0.4768 N.am    1  UNL1       -0.2996
     17 H          62.6184   95.1708   -0.9133 H       1  UNL1        0.1498
     18 C          64.7755   94.9926   -1.0200 C.3     1  UNL1        0.0897
     19 C          64.9541   95.7045   -2.3282 C.3     1  UNL1        0.0196
     20 C          64.7110   95.7868   -3.8061 C.3     1  UNL1        0.0017
     21 C          65.5066   96.8551   -3.1162 C.3     1  UNL1        0.0017
     22 C          60.4053   89.6801    6.7443 C.3     1  UNL1        0.0468
     23 C          59.7589   88.8582    7.8198 C.3     1  UNL1        0.0770
     24 N          62.1914   87.4223   11.3228 N.pl3   1  UNL1       -0.3046
     25 C          61.2527   86.4825   10.6260 C.3     1  UNL1        0.1081
     26 C          60.4418   86.9611    9.4582 C.3     1  UNL1        0.0938
     27 N          60.5697   88.3796    8.9874 N.3     1  UNL1       -0.2695
     28 C          61.5084   89.3194    9.6844 C.3     1  UNL1        0.0938
     29 C          62.3192   88.8407   10.8520 C.3     1  UNL1        0.1081
     30 C          63.6909   81.0619   13.4550 C.3     1  UNL1        0.0521
     31 C          63.5187   82.5323   13.2139 C.ar    1  UNL1        0.0593
     32 C          62.7079   83.0109   12.0462 C.ar    1  UNL1        0.0148
     33 C          62.5357   84.4814   11.8051 C.ar    1  UNL1        0.0039
     34 C          63.1744   85.4732   12.7316 C.ar    1  UNL1        0.0310
     35 C          63.0022   86.9436   12.4904 C.ar    1  UNL1        0.0493
     36 C          63.6409   87.9354   13.4170 C.ar    1  UNL1        0.0146
     37 C          64.4517   87.4568   14.5846 C.ar    1  UNL1        0.0028
     38 C          64.6239   85.9863   14.8258 C.ar    1  UNL1        0.0192
     39 C          63.9852   84.9946   13.8993 C.ar    1  UNL1        0.0821
     40 N          64.1574   83.5241   14.1405 N.ar    1  UNL1       -0.2496
@<TRIPOS>BOND
     1    30    31    1
     2    31    32   ar
     3    32    33   ar
     4    33    34   ar
     5    34    35   ar
     6    35    24    1
     7    24    25    1
     8    25    26    1
     9    26    27    1
    10    27    23    1
    11    23    22    1
    12    22     1    1
    13     1     2   ar
    14     2     3   ar
    15     3     4   ar
    16     4     5   ar
    17     5     6   ar
    18     6     7    1
    19     7     8    1
    20     8     9    1
    21     9    10   ar
    22    10    14    1
    23    14    15    2
    24    14    16   am
    25    16    18    1
    26    18    19    1
    27    19    20    1
    28    20    21    1
    29    10    11   ar
    30    11    12   ar
    31    12    13   ar
    32    27    28    1
    33    28    29    1
    34    35    36   ar
    35    36    37   ar
    36    37    38   ar
    37    38    39   ar
    38    39    40   ar
    39    40    31   ar
    40    39    34   ar
    41    29    24    1
    42     6     1   ar
    43    13     9   ar
    44    13     5    1
    45    21    19    1
    46    16    17    1
