@<TRIPOS>MOLECULE
*****
 26 28 0 0 0
SMALL
GASTEIGER

@<TRIPOS>ATOM
      1 C          61.7425   90.1639    9.6689 C.3     1  UNL1        0.0343
      2 C          62.6415   90.2174   10.8685 C.ar    1  UNL1        0.0149
      3 C          63.5596   91.3870   11.0660 C.ar    1  UNL1       -0.0014
      4 C          64.4586   91.4406   12.2655 C.ar    1  UNL1       -0.0020
      5 C          64.4395   90.3246   13.2676 C.ar    1  UNL1        0.0121
      6 C          63.5213   89.1550   13.0701 C.ar    1  UNL1        0.1702
      7 F          63.5022   88.0389   14.0721 F       1  UNL1       -0.2013
      8 C          62.6223   89.1014   11.8705 C.ar    1  UNL1        0.1682
      9 C          65.3384   90.3782   14.4671 C.3     1  UNL1        0.0757
     10 C          66.4410   91.3930   14.5333 C.3     1  UNL1        0.2056
     11 N          67.5730   91.5299   13.5587 N.2     1  UNL1       -0.1621
     12 N          68.4369   92.6707   14.0088 N.am    1  UNL1       -0.0650
     13 C          67.8388   93.2388   15.2617 C.2     1  UNL1        0.3459
     14 O          68.3792   94.3936   16.0516 O.2     1  UNL1       -0.2488
     15 N          66.6053   92.4492   15.5858 N.am    1  UNL1       -0.2399
     16 C          65.6958   92.6758   16.7568 C.3     1  UNL1        0.1184
     17 O          61.7042   87.9318   11.6730 O.3     1  UNL1       -0.4515
     18 C          62.2338   86.6511   11.0991 C.ar    1  UNL1        0.1469
     19 C          62.3237   86.4763    9.6120 C.ar    1  UNL1        0.0489
     20 C          62.8533   85.1956    9.0380 C.ar    1  UNL1        0.0614
     21 CL         62.9432   85.0209    7.5510 Cl      1  UNL1       -0.0821
     22 C          63.2930   84.0898    9.9511 C.ar    1  UNL1        0.0219
     23 C          63.2031   84.2646   11.4382 C.ar    1  UNL1        0.0723
     24 C          62.6735   85.5453   12.0122 C.ar    1  UNL1        0.0478
     25 C          63.6428   83.1587   12.3513 C.1     1  UNL1        0.1005
     26 N          64.0824   82.0529   13.2644 N.1     1  UNL1       -0.1908
@<TRIPOS>BOND
     1     1     2    1
     2     2     3   ar
     3     3     4   ar
     4     4     5   ar
     5     5     9    1
     6     9    10    1
     7    10    11    1
     8    11    12    2
     9    12    13    1
    10    13    14    2
    11    13    15   am
    12    15    16    1
    13     5     6   ar
    14     6     7    1
    15     6     8   ar
    16     8    17    1
    17    17    18    1
    18    18    19   ar
    19    19    20   ar
    20    20    21    1
    21    20    22   ar
    22    22    23   ar
    23    23    25    1
    24    25    26    3
    25    23    24   ar
    26     8     2   ar
    27    24    18   ar
    28    15    10    1
@<TRIPOS>MOLECULE
*****
 26 28 0 0 0
SMALL
GASTEIGER

@<TRIPOS>ATOM
      1 C          59.8158   88.3970    9.7083 C.3     1  UNL1        0.0343
      2 C          61.0035   89.1034   10.2918 C.ar    1  UNL1        0.0149
      3 C          61.3508   90.4893    9.8352 C.ar    1  UNL1       -0.0014
      4 C          62.5385   91.1957   10.4187 C.ar    1  UNL1       -0.0020
      5 C          63.3789   90.5160   11.4587 C.ar    1  UNL1        0.0121
      6 C          63.0317   89.1301   11.9152 C.ar    1  UNL1        0.1702
      7 F          63.8722   88.4504   12.9553 F       1  UNL1       -0.2013
      8 C          61.8440   88.4238   11.3318 C.ar    1  UNL1        0.1682
      9 C          64.5667   91.2224   12.0421 C.3     1  UNL1        0.0757
     10 C          64.6237   91.5029   13.5145 C.3     1  UNL1        0.2056
     11 N          63.5266   91.2449   14.5044 N.2     1  UNL1       -0.1621
     12 N          64.0128   91.6733   15.8573 N.am    1  UNL1       -0.0650
     13 C          65.4103   92.1961   15.7035 C.2     1  UNL1        0.3459
     14 O          66.2779   92.7303   16.8043 O.2     1  UNL1       -0.2488
     15 N          65.7879   92.0908   14.2557 N.am    1  UNL1       -0.2399
     16 C          67.0994   92.5012   13.6544 C.3     1  UNL1        0.1184
     17 O          61.4967   87.0377   11.7884 O.3     1  UNL1       -0.4515
     18 C          62.1646   85.8513   11.1590 C.ar    1  UNL1        0.1469
     19 C          62.3811   85.8122    9.6751 C.ar    1  UNL1        0.0489
     20 C          63.0490   84.6258    9.0457 C.ar    1  UNL1        0.0614
     21 CL         63.2654   84.5867    7.5619 Cl      1  UNL1       -0.0821
     22 C          63.5005   83.4785    9.9000 C.ar    1  UNL1        0.0219
     23 C          63.2841   83.5176   11.3837 C.ar    1  UNL1        0.0723
     24 C          62.6162   84.7040   12.0133 C.ar    1  UNL1        0.0478
     25 C          63.7356   82.3703   12.2380 C.1     1  UNL1        0.1005
     26 N          64.1872   81.2230   13.0923 N.1     1  UNL1       -0.1908
@<TRIPOS>BOND
     1     1     2    1
     2     2     3   ar
     3     3     4   ar
     4     4     5   ar
     5     5     9    1
     6     9    10    1
     7    10    11    1
     8    11    12    2
     9    12    13    1
    10    13    14    2
    11    13    15   am
    12    15    16    1
    13     5     6   ar
    14     6     7    1
    15     6     8   ar
    16     8    17    1
    17    17    18    1
    18    18    19   ar
    19    19    20   ar
    20    20    21    1
    21    20    22   ar
    22    22    23   ar
    23    23    25    1
    24    25    26    3
    25    23    24   ar
    26     8     2   ar
    27    24    18   ar
    28    15    10    1
@<TRIPOS>MOLECULE
*****
 26 28 0 0 0
SMALL
GASTEIGER

@<TRIPOS>ATOM
      1 C          61.7612   89.8562   10.5485 C.3     1  UNL1        0.0343
      2 C          62.3274   88.7288   11.3598 C.ar    1  UNL1        0.0149
      3 C          62.1877   87.3148   10.8790 C.ar    1  UNL1       -0.0014
      4 C          62.7539   86.1874   11.6903 C.ar    1  UNL1       -0.0020
      5 C          63.4598   86.4738   12.9824 C.ar    1  UNL1        0.0121
      6 C          63.5996   87.8878   13.4632 C.ar    1  UNL1        0.1702
      7 F          64.3056   88.1743   14.7553 F       1  UNL1       -0.2013
      8 C          63.0334   89.0152   12.6518 C.ar    1  UNL1        0.1682
      9 C          64.0260   85.3464   13.7937 C.3     1  UNL1        0.0757
     10 C          63.3442   84.0104   13.7996 C.3     1  UNL1        0.2056
     11 N          62.3246   83.5452   14.7966 N.2     1  UNL1       -0.1621
     12 N          61.9124   82.1522   14.4226 N.am    1  UNL1       -0.0650
     13 C          62.6773   81.7564   13.1945 C.2     1  UNL1        0.3459
     14 O          62.5753   80.4430   12.4773 O.2     1  UNL1       -0.2488
     15 N          63.5622   82.9048   12.8094 N.am    1  UNL1       -0.2399
     16 C          64.5003   82.9414   11.6396 C.3     1  UNL1        0.1184
     17 O          63.1731   90.4293   13.1327 O.3     1  UNL1       -0.4515
     18 C          64.4994   91.1242   13.0432 C.ar    1  UNL1        0.1469
     19 C          65.4672   91.0433   14.1863 C.ar    1  UNL1        0.0489
     20 C          66.7935   91.7382   14.0968 C.ar    1  UNL1        0.0614
     21 CL         67.7612   91.6573   15.2400 Cl      1  UNL1       -0.0821
     22 C          67.1520   92.5142   12.8642 C.ar    1  UNL1        0.0219
     23 C          66.1842   92.5951   11.7210 C.ar    1  UNL1        0.0723
     24 C          64.8579   91.9001   11.8105 C.ar    1  UNL1        0.0478
     25 C          66.5427   93.3710   10.4884 C.1     1  UNL1        0.1005
     26 N          66.9012   94.1470    9.2557 N.1     1  UNL1       -0.1908
@<TRIPOS>BOND
     1     1     2    1
     2     2     3   ar
     3     3     4   ar
     4     4     5   ar
     5     5     9    1
     6     9    10    1
     7    10    11    1
     8    11    12    2
     9    12    13    1
    10    13    14    2
    11    13    15   am
    12    15    16    1
    13     5     6   ar
    14     6     7    1
    15     6     8   ar
    16     8    17    1
    17    17    18    1
    18    18    19   ar
    19    19    20   ar
    20    20    21    1
    21    20    22   ar
    22    22    23   ar
    23    23    25    1
    24    25    26    3
    25    23    24   ar
    26     8     2   ar
    27    24    18   ar
    28    15    10    1
@<TRIPOS>MOLECULE
*****
 26 28 0 0 0
SMALL
GASTEIGER

@<TRIPOS>ATOM
      1 C          59.5503   88.1431   10.1277 C.3     1  UNL1        0.0343
      2 C          60.7494   88.8984   10.6192 C.ar    1  UNL1        0.0149
      3 C          60.9302   90.3410   10.2501 C.ar    1  UNL1       -0.0014
      4 C          62.1293   91.0963   10.7417 C.ar    1  UNL1       -0.0020
      5 C          63.1476   90.4091   11.6024 C.ar    1  UNL1        0.0121
      6 C          62.9668   88.9665   11.9715 C.ar    1  UNL1        0.1702
      7 F          63.9851   88.2793   12.8322 F       1  UNL1       -0.2013
      8 C          61.7677   88.2112   11.4799 C.ar    1  UNL1        0.1682
      9 C          64.3467   91.1645   12.0940 C.3     1  UNL1        0.0757
     10 C          64.5022   91.4546   13.5574 C.3     1  UNL1        0.2056
     11 N          63.4849   91.1770   14.6242 N.2     1  UNL1       -0.1621
     12 N          64.0563   91.6241   15.9372 N.am    1  UNL1       -0.0650
     13 C          65.4267   92.1781   15.6817 C.2     1  UNL1        0.3459
     14 O          66.3580   92.7384   16.7154 O.2     1  UNL1       -0.2488
     15 N          65.7023   92.0733   14.2109 N.am    1  UNL1       -0.2399
     16 C          66.9574   92.5104   13.5157 C.3     1  UNL1        0.1184
     17 O          61.5869   86.7686   11.8491 O.3     1  UNL1       -0.4515
     18 C          62.2838   85.6996   11.0606 C.ar    1  UNL1        0.1469
     19 C          63.0731   84.6390   11.7693 C.ar    1  UNL1        0.0489
     20 C          63.7700   83.5701   10.9808 C.ar    1  UNL1        0.0614
     21 CL         64.5593   82.5096   11.6895 Cl      1  UNL1       -0.0821
     22 C          63.6776   83.5617    9.4837 C.ar    1  UNL1        0.0219
     23 C          62.8882   84.6222    8.7750 C.ar    1  UNL1        0.0723
     24 C          62.1913   85.6912    9.5635 C.ar    1  UNL1        0.0478
     25 C          62.7958   84.6138    7.2779 C.1     1  UNL1        0.1005
     26 N          62.7033   84.6054    5.7808 N.1     1  UNL1       -0.1908
@<TRIPOS>BOND
     1     1     2    1
     2     2     3   ar
     3     3     4   ar
     4     4     5   ar
     5     5     9    1
     6     9    10    1
     7    10    11    1
     8    11    12    2
     9    12    13    1
    10    13    14    2
    11    13    15   am
    12    15    16    1
    13     5     6   ar
    14     6     7    1
    15     6     8   ar
    16     8    17    1
    17    17    18    1
    18    18    19   ar
    19    19    20   ar
    20    20    21    1
    21    20    22   ar
    22    22    23   ar
    23    23    25    1
    24    25    26    3
    25    23    24   ar
    26     8     2   ar
    27    24    18   ar
    28    15    10    1
@<TRIPOS>MOLECULE
*****
 26 28 0 0 0
SMALL
GASTEIGER

@<TRIPOS>ATOM
      1 C          60.7224   85.6385    8.1146 C.3     1  UNL1        0.0343
      2 C          60.9936   86.7551    9.0788 C.ar    1  UNL1        0.0149
      3 C          60.1778   88.0124    9.0189 C.ar    1  UNL1       -0.0014
      4 C          60.4490   89.1290    9.9831 C.ar    1  UNL1       -0.0020
      5 C          61.5360   88.9883   11.0071 C.ar    1  UNL1        0.0121
      6 C          62.3517   87.7310   11.0670 C.ar    1  UNL1        0.1702
      7 F          63.4388   87.5902   12.0910 F       1  UNL1       -0.2013
      8 C          62.0806   86.6144   10.1028 C.ar    1  UNL1        0.1682
      9 C          61.8072   90.1049   11.9713 C.3     1  UNL1        0.0757
     10 C          63.0671   90.9099   11.8515 C.3     1  UNL1        0.2056
     11 N          63.6144   91.5084   10.5896 N.2     1  UNL1       -0.1621
     12 N          64.8866   92.2262   10.9307 N.am    1  UNL1       -0.0650
     13 C          65.1256   92.0713   12.4035 C.2     1  UNL1        0.3459
     14 O          66.2854   92.6316   13.1722 O.2     1  UNL1       -0.2488
     15 N          64.0011   91.2579   12.9725 N.am    1  UNL1       -0.2399
     16 C          63.8390   90.8618   14.4101 C.3     1  UNL1        0.1184
     17 O          62.8964   85.3570   10.1626 O.3     1  UNL1       -0.4515
     18 C          62.7724   84.4380   11.3415 C.ar    1  UNL1        0.1469
     19 C          62.8112   82.9518   11.1413 C.ar    1  UNL1        0.0489
     20 C          62.6872   82.0328   12.3202 C.ar    1  UNL1        0.0614
     21 CL         62.7259   80.5467   12.1200 Cl      1  UNL1       -0.0821
     22 C          62.5244   82.5997   13.6994 C.ar    1  UNL1        0.0219
     23 C          62.4856   84.0857   13.8996 C.ar    1  UNL1        0.0723
     24 C          62.6096   85.0049   12.7207 C.ar    1  UNL1        0.0478
     25 C          62.3228   84.6527   15.2788 C.1     1  UNL1        0.1005
     26 N          62.1600   85.2196   16.6580 N.1     1  UNL1       -0.1908
@<TRIPOS>BOND
     1     1     2    1
     2     2     3   ar
     3     3     4   ar
     4     4     5   ar
     5     5     9    1
     6     9    10    1
     7    10    11    1
     8    11    12    2
     9    12    13    1
    10    13    14    2
    11    13    15   am
    12    15    16    1
    13     5     6   ar
    14     6     7    1
    15     6     8   ar
    16     8    17    1
    17    17    18    1
    18    18    19   ar
    19    19    20   ar
    20    20    21    1
    21    20    22   ar
    22    22    23   ar
    23    23    25    1
    24    25    26    3
    25    23    24   ar
    26     8     2   ar
    27    24    18   ar
    28    15    10    1
@<TRIPOS>MOLECULE
*****
 26 28 0 0 0
SMALL
GASTEIGER

@<TRIPOS>ATOM
      1 C          59.4341   88.7102    7.9640 C.3     1  UNL1        0.0343
      2 C          60.3788   87.7506    8.6249 C.ar    1  UNL1        0.0149
      3 C          60.5322   86.3589    8.0870 C.ar    1  UNL1       -0.0014
      4 C          61.4769   85.3993    8.7479 C.ar    1  UNL1       -0.0020
      5 C          62.2681   85.8315    9.9467 C.ar    1  UNL1        0.0121
      6 C          62.1147   87.2233   10.4846 C.ar    1  UNL1        0.1702
      7 F          62.9059   87.6555   11.6835 F       1  UNL1       -0.2013
      8 C          61.1700   88.1828    9.8237 C.ar    1  UNL1        0.1682
      9 C          63.2128   84.8719   10.6076 C.3     1  UNL1        0.0757
     10 C          62.8807   84.2996   11.9537 C.3     1  UNL1        0.2056
     11 N          62.5499   85.0847   13.1883 N.2     1  UNL1       -0.1621
     12 N          62.2857   84.1120   14.2993 N.am    1  UNL1       -0.0650
     13 C          62.4532   82.7257   13.7512 C.2     1  UNL1        0.3459
     14 O          62.2829   81.4480   14.5181 O.2     1  UNL1       -0.2488
     15 N          62.8209   82.8417   12.3016 N.am    1  UNL1       -0.2399
     16 C          63.0828   81.7002   11.3644 C.3     1  UNL1        0.1184
     17 O          61.0165   89.5747   10.3617 O.3     1  UNL1       -0.4515
     18 C          62.1367   90.2089   11.1316 C.ar    1  UNL1        0.1469
     19 C          63.1800   91.0123   10.4130 C.ar    1  UNL1        0.0489
     20 C          64.3002   91.6466   11.1829 C.ar    1  UNL1        0.0614
     21 CL         65.3433   92.4500   10.4643 Cl      1  UNL1       -0.0821
     22 C          64.3773   91.4775   12.6713 C.ar    1  UNL1        0.0219
     23 C          63.3341   90.6741   13.3899 C.ar    1  UNL1        0.0723
     24 C          62.2138   90.0398   12.6200 C.ar    1  UNL1        0.0478
     25 C          63.4112   90.5049   14.8783 C.1     1  UNL1        0.1005
     26 N          63.4883   90.3358   16.3668 N.1     1  UNL1       -0.1908
@<TRIPOS>BOND
     1     1     2    1
     2     2     3   ar
     3     3     4   ar
     4     4     5   ar
     5     5     9    1
     6     9    10    1
     7    10    11    1
     8    11    12    2
     9    12    13    1
    10    13    14    2
    11    13    15   am
    12    15    16    1
    13     5     6   ar
    14     6     7    1
    15     6     8   ar
    16     8    17    1
    17    17    18    1
    18    18    19   ar
    19    19    20   ar
    20    20    21    1
    21    20    22   ar
    22    22    23   ar
    23    23    25    1
    24    25    26    3
    25    23    24   ar
    26     8     2   ar
    27    24    18   ar
    28    15    10    1
@<TRIPOS>MOLECULE
*****
 26 28 0 0 0
SMALL
GASTEIGER

@<TRIPOS>ATOM
      1 C          63.4378   90.0295   15.3181 C.3     1  UNL1        0.0343
      2 C          64.3472   90.6851   14.3215 C.ar    1  UNL1        0.0149
      3 C          65.7708   90.9834   14.6880 C.ar    1  UNL1       -0.0014
      4 C          66.6802   91.6391   13.6915 C.ar    1  UNL1       -0.0020
      5 C          66.1660   91.9965   12.3285 C.ar    1  UNL1        0.0121
      6 C          64.7424   91.6982   11.9620 C.ar    1  UNL1        0.1702
      7 F          64.2281   92.0556   10.5990 F       1  UNL1       -0.2013
      8 C          63.8330   91.0425   12.9586 C.ar    1  UNL1        0.1682
      9 C          67.0754   92.6522   11.3320 C.3     1  UNL1        0.0757
     10 C          66.7411   94.0112   10.7921 C.3     1  UNL1        0.2056
     11 N          65.9446   95.0686   11.4974 N.2     1  UNL1       -0.1621
     12 N          65.8558   96.2623   10.5933 N.am    1  UNL1       -0.0650
     13 C          66.5975   95.9426    9.3293 C.2     1  UNL1        0.3459
     14 O          66.7630   96.8540    8.1496 O.2     1  UNL1       -0.2488
     15 N          67.1446   94.5513    9.4521 N.am    1  UNL1       -0.2399
     16 C          67.9532   93.8273    8.4169 C.3     1  UNL1        0.1184
     17 O          62.4093   90.7443   12.5920 O.3     1  UNL1       -0.4515
     18 C          62.0938   89.5898   11.6879 C.ar    1  UNL1        0.1469
     19 C          62.5990   88.2170   12.0201 C.ar    1  UNL1        0.0489
     20 C          62.2835   87.0625   11.1160 C.ar    1  UNL1        0.0614
     21 CL         62.7887   85.6898   11.4483 Cl      1  UNL1       -0.0821
     22 C          61.4626   87.2806    9.8796 C.ar    1  UNL1        0.0219
     23 C          60.9573   88.6533    9.5474 C.ar    1  UNL1        0.0723
     24 C          61.2729   89.8079   10.4515 C.ar    1  UNL1        0.0478
     25 C          60.1365   88.8715    8.3110 C.1     1  UNL1        0.1005
     26 N          59.3157   89.0896    7.0746 N.1     1  UNL1       -0.1908
@<TRIPOS>BOND
     1     1     2    1
     2     2     3   ar
     3     3     4   ar
     4     4     5   ar
     5     5     9    1
     6     9    10    1
     7    10    11    1
     8    11    12    2
     9    12    13    1
    10    13    14    2
    11    13    15   am
    12    15    16    1
    13     5     6   ar
    14     6     7    1
    15     6     8   ar
    16     8    17    1
    17    17    18    1
    18    18    19   ar
    19    19    20   ar
    20    20    21    1
    21    20    22   ar
    22    22    23   ar
    23    23    25    1
    24    25    26    3
    25    23    24   ar
    26     8     2   ar
    27    24    18   ar
    28    15    10    1
@<TRIPOS>MOLECULE
*****
 26 28 0 0 0
SMALL
GASTEIGER

@<TRIPOS>ATOM
      1 C          63.4139   84.1280    8.9424 C.3     1  UNL1        0.0343
      2 C          63.5326   84.0334   10.4347 C.ar    1  UNL1        0.0149
      3 C          64.7098   83.3372   11.0508 C.ar    1  UNL1       -0.0014
      4 C          64.8285   83.2426   12.5431 C.ar    1  UNL1       -0.0020
      5 C          63.7701   83.8442   13.4193 C.ar    1  UNL1        0.0121
      6 C          62.5929   84.5404   12.8032 C.ar    1  UNL1        0.1702
      7 F          61.5344   85.1420   13.6794 F       1  UNL1       -0.2013
      8 C          62.4742   84.6350   11.3109 C.ar    1  UNL1        0.1682
      9 C          63.8888   83.7496   14.9116 C.3     1  UNL1        0.0757
     10 C          63.3535   84.8509   15.7779 C.3     1  UNL1        0.2056
     11 N          62.2555   84.7208   16.7915 N.2     1  UNL1       -0.1621
     12 N          62.0456   86.0654   17.4227 N.am    1  UNL1       -0.0650
     13 C          63.0140   87.0264   16.7992 C.2     1  UNL1        0.3459
     14 O          63.1501   88.4822   17.1335 O.2     1  UNL1       -0.2488
     15 N          63.8223   86.2759   15.7826 N.am    1  UNL1       -0.2399
     16 C          64.9086   86.8495   14.9219 C.3     1  UNL1        0.1184
     17 O          61.2970   85.3312   10.6948 O.3     1  UNL1       -0.4515
     18 C          61.3613   86.8021   10.4082 C.ar    1  UNL1        0.1469
     19 C          60.5685   87.3806    9.2737 C.ar    1  UNL1        0.0489
     20 C          60.6328   88.8515    8.9870 C.ar    1  UNL1        0.0614
     21 CL         59.8400   89.4298    7.8526 Cl      1  UNL1       -0.0821
     22 C          61.4899   89.7441    9.8348 C.ar    1  UNL1        0.0219
     23 C          62.2826   89.1657   10.9693 C.ar    1  UNL1        0.0723
     24 C          62.2184   87.6947   11.2560 C.ar    1  UNL1        0.0478
     25 C          63.1397   90.0583   11.8170 C.1     1  UNL1        0.1005
     26 N          63.9968   90.9509   12.6648 N.1     1  UNL1       -0.1908
@<TRIPOS>BOND
     1     1     2    1
     2     2     3   ar
     3     3     4   ar
     4     4     5   ar
     5     5     9    1
     6     9    10    1
     7    10    11    1
     8    11    12    2
     9    12    13    1
    10    13    14    2
    11    13    15   am
    12    15    16    1
    13     5     6   ar
    14     6     7    1
    15     6     8   ar
    16     8    17    1
    17    17    18    1
    18    18    19   ar
    19    19    20   ar
    20    20    21    1
    21    20    22   ar
    22    22    23   ar
    23    23    25    1
    24    25    26    3
    25    23    24   ar
    26     8     2   ar
    27    24    18   ar
    28    15    10    1
@<TRIPOS>MOLECULE
*****
 26 28 0 0 0
SMALL
GASTEIGER

@<TRIPOS>ATOM
      1 C          62.7314   86.3338   18.2626 C.3     1  UNL1        0.0343
      2 C          63.1060   87.1727   17.0769 C.ar    1  UNL1        0.0149
      3 C          62.7485   88.6291   17.0455 C.ar    1  UNL1       -0.0014
      4 C          63.1231   89.4680   15.8598 C.ar    1  UNL1       -0.0020
      5 C          63.8553   88.8504   14.7055 C.ar    1  UNL1        0.0121
      6 C          64.2128   87.3940   14.7368 C.ar    1  UNL1        0.1702
      7 F          64.9450   86.7765   13.5824 F       1  UNL1       -0.2013
      8 C          63.8382   86.5552   15.9225 C.ar    1  UNL1        0.1682
      9 C          64.2299   89.6893   13.5197 C.3     1  UNL1        0.0757
     10 C          65.0355   90.9402   13.7104 C.3     1  UNL1        0.2056
     11 N          65.7590   91.3407   14.9619 N.2     1  UNL1       -0.1621
     12 N          66.4297   92.6583   14.7080 N.am    1  UNL1       -0.0650
     13 C          66.1207   93.0719   13.2996 C.2     1  UNL1        0.3459
     14 O          66.5908   94.3270   12.6261 O.2     1  UNL1       -0.2488
     15 N          65.2591   92.0101   12.6831 N.am    1  UNL1       -0.2399
     16 C          64.7163   92.0169   11.2848 C.3     1  UNL1        0.1184
     17 O          64.1957   85.0987   15.9539 O.3     1  UNL1       -0.4515
     18 C          63.7496   84.1929   14.8446 C.ar    1  UNL1        0.1469
     19 C          64.4270   84.2545   13.5076 C.ar    1  UNL1        0.0489
     20 C          63.9808   83.3487   12.3984 C.ar    1  UNL1        0.0614
     21 CL         64.6582   83.4103   11.0615 Cl      1  UNL1       -0.0821
     22 C          62.8573   82.3812   12.6261 C.ar    1  UNL1        0.0219
     23 C          62.1800   82.3196   13.9630 C.ar    1  UNL1        0.0723
     24 C          62.6261   83.2254   15.0723 C.ar    1  UNL1        0.0478
     25 C          61.0565   81.3521   14.1907 C.1     1  UNL1        0.1005
     26 N          59.9330   80.3847   14.4183 N.1     1  UNL1       -0.1908
@<TRIPOS>BOND
     1     1     2    1
     2     2     3   ar
     3     3     4   ar
     4     4     5   ar
     5     5     9    1
     6     9    10    1
     7    10    11    1
     8    11    12    2
     9    12    13    1
    10    13    14    2
    11    13    15   am
    12    15    16    1
    13     5     6   ar
    14     6     7    1
    15     6     8   ar
    16     8    17    1
    17    17    18    1
    18    18    19   ar
    19    19    20   ar
    20    20    21    1
    21    20    22   ar
    22    22    23   ar
    23    23    25    1
    24    25    26    3
    25    23    24   ar
    26     8     2   ar
    27    24    18   ar
    28    15    10    1
