@<TRIPOS>MOLECULE
*****
 35 39 0 0 0
SMALL
GASTEIGER

@<TRIPOS>ATOM
      1 N          63.3275   90.6896   15.4245 N.pl3   1  UNL1       -0.3125
      2 H          62.6973   91.2698   15.9096 H       1  UNL1        0.1522
      3 C          61.9697   90.4282   11.1422 C.ar    1  UNL1        0.1389
      4 C          62.8238   90.9978   10.0485 C.ar    1  UNL1        0.0384
      5 C          64.1305   91.6545   10.3823 C.ar    1  UNL1        0.0223
      6 C          64.5831   91.7416   11.8097 C.ar    1  UNL1        0.0826
      7 N          65.8897   92.3983   12.1434 N.ar    1  UNL1       -0.2452
      8 C          66.3423   92.4854   13.5708 C.ar    1  UNL1        0.0833
      9 C          67.6490   93.1421   13.9045 C.ar    1  UNL1        0.0305
     10 C          68.1016   93.2293   15.3320 C.ar    1  UNL1        0.0592
     11 CL         69.4082   93.8860   15.6658 Cl      1  UNL1       -0.0822
     12 C          67.2475   92.6597   16.4257 C.ar    1  UNL1        0.0115
     13 C          65.9409   92.0030   16.0920 C.ar    1  UNL1        0.0036
     14 C          65.4883   91.9159   14.6646 C.ar    1  UNL1        0.0312
     15 C          64.1816   91.2592   14.3308 C.ar    1  UNL1        0.0513
     16 C          63.7290   91.1720   12.9033 C.ar    1  UNL1        0.0341
     17 C          62.4223   90.5153   12.5696 C.ar    1  UNL1        0.0396
     18 C          59.4191   90.1546   11.5539 C.3     1  UNL1        0.2525
     19 O          60.6631   89.7715   10.8085 O.3     1  UNL1       -0.4714
     20 C          63.4337   89.2360   15.7790 C.ar    1  UNL1        0.0482
     21 C          62.7797   88.7183   17.0257 C.ar    1  UNL1        0.0177
     22 C          62.8859   87.2647   17.3803 C.ar    1  UNL1        0.0376
     23 C          63.6461   86.3287   16.4881 C.ar    1  UNL1        0.1310
     24 O          63.7523   84.8751   16.8427 O.3     1  UNL1       -0.5058
     25 C          64.3002   86.8463   15.2414 C.ar    1  UNL1        0.0288
     26 C          64.1940   88.3000   14.8868 C.ar    1  UNL1        0.0147
     27 H          63.3437   84.5518   17.6215 H       1  UNL1        0.2922
     28 C          65.0604   85.9104   14.3493 C.3     1  UNL1        0.1023
     29 N          64.3776   84.7080   13.7679 N.3     1  UNL1       -0.2664
     30 C          64.7171   83.3362   14.2710 C.3     1  UNL1        0.0899
     31 C          64.0342   82.1339   13.6896 C.3     1  UNL1        0.0897
     32 N          63.0118   82.3033   12.6051 N.3     1  UNL1       -0.2691
     33 C          62.3290   81.1009   12.0237 C.3     1  UNL1        0.0897
     34 C          62.6723   83.6750   12.1020 C.3     1  UNL1        0.0897
     35 C          63.3552   84.8774   12.6834 C.3     1  UNL1        0.0899
@<TRIPOS>BOND
     1    18    19    1
     2    19     3    1
     3     3     4   ar
     4     4     5   ar
     5     5     6   ar
     6     6     7   ar
     7     7     8   ar
     8     8     9   ar
     9     9    10   ar
    10    10    11    1
    11    10    12   ar
    12    12    13   ar
    13    13    14   ar
    14    14    15   ar
    15    15     1    1
    16     1    20    1
    17    20    21   ar
    18    21    22   ar
    19    22    23   ar
    20    23    24    1
    21    23    25   ar
    22    25    28    1
    23    28    29    1
    24    29    30    1
    25    30    31    1
    26    31    32    1
    27    32    33    1
    28    32    34    1
    29    34    35    1
    30    25    26   ar
    31    15    16   ar
    32    16    17   ar
    33    17     3   ar
    34    16     6   ar
    35    14     8   ar
    36    26    20   ar
    37    35    29    1
    38     1     2    1
    39    24    27    1
@<TRIPOS>MOLECULE
*****
 35 39 0 0 0
SMALL
GASTEIGER

@<TRIPOS>ATOM
      1 N          63.1784   90.8009   14.5999 N.pl3   1  UNL1       -0.3125
      2 H          62.8560   91.5530   15.1473 H       1  UNL1        0.1522
      3 C          66.9380   92.9651   13.4036 C.ar    1  UNL1        0.1389
      4 C          67.2531   93.1749   11.9521 C.ar    1  UNL1        0.0384
      5 C          66.3149   92.6632   10.8995 C.ar    1  UNL1        0.0223
      6 C          65.0617   91.9418   11.2982 C.ar    1  UNL1        0.0826
      7 N          64.1236   91.4302   10.2455 N.ar    1  UNL1       -0.2452
      8 C          62.8704   90.7088   10.6443 C.ar    1  UNL1        0.0833
      9 C          61.9323   90.1972    9.5916 C.ar    1  UNL1        0.0305
     10 C          60.6790   89.4757    9.9904 C.ar    1  UNL1        0.0592
     11 CL         59.7409   88.9641    8.9377 Cl      1  UNL1       -0.0822
     12 C          60.3640   89.2660   11.4418 C.ar    1  UNL1        0.0115
     13 C          61.3021   89.7776   12.4945 C.ar    1  UNL1        0.0036
     14 C          62.5553   90.4990   12.0958 C.ar    1  UNL1        0.0312
     15 C          63.4934   91.0107   13.1485 C.ar    1  UNL1        0.0513
     16 C          64.7467   91.7321   12.7496 C.ar    1  UNL1        0.0341
     17 C          65.6848   92.2437   13.8023 C.ar    1  UNL1        0.0396
     18 C          67.6141   93.1796   15.9029 C.3     1  UNL1        0.2525
     19 O          67.8761   93.4767   14.4562 O.3     1  UNL1       -0.4714
     20 C          63.3544   89.4452   15.2173 C.ar    1  UNL1        0.0482
     21 C          62.7864   89.1604   16.5760 C.ar    1  UNL1        0.0177
     22 C          62.9625   87.8048   17.1934 C.ar    1  UNL1        0.0376
     23 C          63.7066   86.7339   16.4521 C.ar    1  UNL1        0.1310
     24 O          63.8826   85.3783   17.0695 O.3     1  UNL1       -0.5058
     25 C          64.2746   87.0187   15.0933 C.ar    1  UNL1        0.0288
     26 C          64.0985   88.3744   14.4759 C.ar    1  UNL1        0.0147
     27 H          63.5278   85.2004   17.9183 H       1  UNL1        0.2922
     28 C          65.0186   85.9479   14.3519 C.3     1  UNL1        0.1023
     29 N          64.3028   84.7061   13.9098 N.3     1  UNL1       -0.2664
     30 C          63.4395   84.7344   12.6834 C.3     1  UNL1        0.0899
     31 C          62.7237   83.4926   12.2413 C.3     1  UNL1        0.0897
     32 N          62.8711   82.2225   13.0256 N.3     1  UNL1       -0.2691
     33 C          62.1553   80.9807   12.5835 C.3     1  UNL1        0.0897
     34 C          63.7343   82.1941   14.2519 C.3     1  UNL1        0.0897
     35 C          64.4502   83.4359   14.6941 C.3     1  UNL1        0.0899
@<TRIPOS>BOND
     1    18    19    1
     2    19     3    1
     3     3     4   ar
     4     4     5   ar
     5     5     6   ar
     6     6     7   ar
     7     7     8   ar
     8     8     9   ar
     9     9    10   ar
    10    10    11    1
    11    10    12   ar
    12    12    13   ar
    13    13    14   ar
    14    14    15   ar
    15    15     1    1
    16     1    20    1
    17    20    21   ar
    18    21    22   ar
    19    22    23   ar
    20    23    24    1
    21    23    25   ar
    22    25    28    1
    23    28    29    1
    24    29    30    1
    25    30    31    1
    26    31    32    1
    27    32    33    1
    28    32    34    1
    29    34    35    1
    30    25    26   ar
    31    15    16   ar
    32    16    17   ar
    33    17     3   ar
    34    16     6   ar
    35    14     8   ar
    36    26    20   ar
    37    35    29    1
    38     1     2    1
    39    24    27    1
@<TRIPOS>MOLECULE
*****
 35 39 0 0 0
SMALL
GASTEIGER

@<TRIPOS>ATOM
      1 N          64.7475   87.0385   14.4519 N.pl3   1  UNL1       -0.3125
      2 H          65.5908   86.6018   14.7114 H       1  UNL1        0.1522
      3 C          62.6544   89.4710   11.2973 C.ar    1  UNL1        0.1389
      4 C          61.7316   88.8008   10.3229 C.ar    1  UNL1        0.0384
      5 C          61.5065   87.3198   10.4002 C.ar    1  UNL1        0.0223
      6 C          62.2042   86.5090   11.4517 C.ar    1  UNL1        0.0826
      7 N          61.9791   85.0280   11.5289 N.ar    1  UNL1       -0.2452
      8 C          62.6768   84.2172   12.5805 C.ar    1  UNL1        0.0833
      9 C          62.4517   82.7362   12.6577 C.ar    1  UNL1        0.0305
     10 C          63.1494   81.9253   13.7093 C.ar    1  UNL1        0.0592
     11 CL         62.9243   80.4443   13.7865 Cl      1  UNL1       -0.0822
     12 C          64.0722   82.5955   14.6836 C.ar    1  UNL1        0.0115
     13 C          64.2973   84.0765   14.6064 C.ar    1  UNL1        0.0036
     14 C          63.5996   84.8873   13.5548 C.ar    1  UNL1        0.0312
     15 C          63.8247   86.3683   13.4776 C.ar    1  UNL1        0.0513
     16 C          63.1270   87.1792   12.4260 C.ar    1  UNL1        0.0341
     17 C          63.3521   88.6602   12.3488 C.ar    1  UNL1        0.0396
     18 C          63.1231   91.6054    9.8920 C.3     1  UNL1        0.2525
     19 O          62.8795   90.9520   11.2200 O.3     1  UNL1       -0.4714
     20 C          64.3854   88.3741   15.0309 C.ar    1  UNL1        0.0482
     21 C          63.2383   88.4895   15.9904 C.ar    1  UNL1        0.0177
     22 C          62.8762   89.8250   16.5693 C.ar    1  UNL1        0.0376
     23 C          63.6612   91.0452   16.1888 C.ar    1  UNL1        0.1310
     24 O          63.2991   92.3807   16.7677 O.3     1  UNL1       -0.5058
     25 C          64.8084   90.9298   15.2292 C.ar    1  UNL1        0.0288
     26 C          65.1705   89.5943   14.6502 C.ar    1  UNL1        0.0147
     27 H          62.5825   92.4528   17.3671 H       1  UNL1        0.2922
     28 C          65.5934   92.1500   14.8486 C.3     1  UNL1        0.1023
     29 N          66.3427   92.1847   13.5496 N.3     1  UNL1       -0.2664
     30 C          67.7799   91.7578   13.5011 C.3     1  UNL1        0.0899
     31 C          68.5291   91.7925   12.2021 C.3     1  UNL1        0.0897
     32 N          67.8412   92.2541   10.9516 N.3     1  UNL1       -0.2691
     33 C          68.5905   92.2888    9.6526 C.3     1  UNL1        0.0897
     34 C          66.4041   92.6810   11.0001 C.3     1  UNL1        0.0897
     35 C          65.6548   92.6463   12.2991 C.3     1  UNL1        0.0899
@<TRIPOS>BOND
     1    18    19    1
     2    19     3    1
     3     3     4   ar
     4     4     5   ar
     5     5     6   ar
     6     6     7   ar
     7     7     8   ar
     8     8     9   ar
     9     9    10   ar
    10    10    11    1
    11    10    12   ar
    12    12    13   ar
    13    13    14   ar
    14    14    15   ar
    15    15     1    1
    16     1    20    1
    17    20    21   ar
    18    21    22   ar
    19    22    23   ar
    20    23    24    1
    21    23    25   ar
    22    25    28    1
    23    28    29    1
    24    29    30    1
    25    30    31    1
    26    31    32    1
    27    32    33    1
    28    32    34    1
    29    34    35    1
    30    25    26   ar
    31    15    16   ar
    32    16    17   ar
    33    17     3   ar
    34    16     6   ar
    35    14     8   ar
    36    26    20   ar
    37    35    29    1
    38     1     2    1
    39    24    27    1
@<TRIPOS>MOLECULE
*****
 35 39 0 0 0
SMALL
GASTEIGER

@<TRIPOS>ATOM
      1 N          63.7273   85.1007   11.6279 N.pl3   1  UNL1       -0.3125
      2 H          64.6446   85.0385   11.2759 H       1  UNL1        0.1522
      3 C          62.7936   80.7063   11.3685 C.ar    1  UNL1        0.1389
      4 C          62.4113   79.9466   12.6040 C.ar    1  UNL1        0.0384
      5 C          62.3402   80.6517   13.9261 C.ar    1  UNL1        0.0223
      6 C          62.6514   82.1164   14.0126 C.ar    1  UNL1        0.0826
      7 N          62.5803   82.8215   15.3346 N.ar    1  UNL1       -0.2452
      8 C          62.8915   84.2863   15.4211 C.ar    1  UNL1        0.0833
      9 C          62.8204   84.9914   16.7432 C.ar    1  UNL1        0.0305
     10 C          63.1316   86.4562   16.8296 C.ar    1  UNL1        0.0592
     11 CL         63.0605   87.1613   18.1517 Cl      1  UNL1       -0.0822
     12 C          63.5140   87.2159   15.5941 C.ar    1  UNL1        0.0115
     13 C          63.5851   86.5108   14.2720 C.ar    1  UNL1        0.0036
     14 C          63.2738   85.0461   14.1855 C.ar    1  UNL1        0.0312
     15 C          63.3450   84.3410   12.8635 C.ar    1  UNL1        0.0513
     16 C          63.0337   82.8761   12.7770 C.ar    1  UNL1        0.0341
     17 C          63.1048   82.1711   11.4550 C.ar    1  UNL1        0.0396
     18 C          62.7905   78.5041    9.9899 C.3     1  UNL1        0.2525
     19 O          62.8647   80.0012   10.0464 O.3     1  UNL1       -0.4714
     20 C          62.7120   85.9552   10.9286 C.ar    1  UNL1        0.0482
     21 C          61.8499   85.3662    9.8517 C.ar    1  UNL1        0.0177
     22 C          60.8346   86.2207    9.1524 C.ar    1  UNL1        0.0376
     23 C          60.6814   87.6642    9.5301 C.ar    1  UNL1        0.1310
     24 O          59.6661   88.5187    8.8308 O.3     1  UNL1       -0.5058
     25 C          61.5435   88.2533   10.6070 C.ar    1  UNL1        0.0288
     26 C          62.5588   87.3988   11.3063 C.ar    1  UNL1        0.0147
     27 H          59.1276   88.1507    8.1580 H       1  UNL1        0.2922
     28 C          61.3903   89.6969   10.9847 C.3     1  UNL1        0.1023
     29 N          62.5941   90.5015   11.3763 N.3     1  UNL1       -0.2664
     30 C          63.0850   90.4755   12.7935 C.3     1  UNL1        0.0899
     31 C          64.2888   91.2801   13.1851 C.3     1  UNL1        0.0897
     32 N          65.0018   92.1107   12.1595 N.3     1  UNL1       -0.2691
     33 C          66.2056   92.9153   12.5511 C.3     1  UNL1        0.0897
     34 C          64.5110   92.1367   10.7424 C.3     1  UNL1        0.0897
     35 C          63.3071   91.3321   10.3507 C.3     1  UNL1        0.0899
@<TRIPOS>BOND
     1    18    19    1
     2    19     3    1
     3     3     4   ar
     4     4     5   ar
     5     5     6   ar
     6     6     7   ar
     7     7     8   ar
     8     8     9   ar
     9     9    10   ar
    10    10    11    1
    11    10    12   ar
    12    12    13   ar
    13    13    14   ar
    14    14    15   ar
    15    15     1    1
    16     1    20    1
    17    20    21   ar
    18    21    22   ar
    19    22    23   ar
    20    23    24    1
    21    23    25   ar
    22    25    28    1
    23    28    29    1
    24    29    30    1
    25    30    31    1
    26    31    32    1
    27    32    33    1
    28    32    34    1
    29    34    35    1
    30    25    26   ar
    31    15    16   ar
    32    16    17   ar
    33    17     3   ar
    34    16     6   ar
    35    14     8   ar
    36    26    20   ar
    37    35    29    1
    38     1     2    1
    39    24    27    1
@<TRIPOS>MOLECULE
*****
 35 39 0 0 0
SMALL
GASTEIGER

@<TRIPOS>ATOM
      1 N          62.3084   90.1392   12.1144 N.pl3   1  UNL1       -0.3125
      2 H          61.5703   90.7421   11.8675 H       1  UNL1        0.1522
      3 C          60.0733   88.9140    8.4059 C.ar    1  UNL1        0.1389
      4 C          60.0320   87.4713    7.9974 C.ar    1  UNL1        0.0384
      5 C          60.7357   86.4370    8.8250 C.ar    1  UNL1        0.0223
      6 C          61.4808   86.8454   10.0612 C.ar    1  UNL1        0.0826
      7 N          62.1845   85.8111   10.8888 N.ar    1  UNL1       -0.2452
      8 C          62.9295   86.2195   12.1250 C.ar    1  UNL1        0.0833
      9 C          63.6333   85.1852   12.9526 C.ar    1  UNL1        0.0305
     10 C          64.3783   85.5937   14.1888 C.ar    1  UNL1        0.0592
     11 CL         65.0821   84.5594   15.0165 Cl      1  UNL1       -0.0822
     12 C          64.4196   87.0363   14.5973 C.ar    1  UNL1        0.0115
     13 C          63.7159   88.0706   13.7697 C.ar    1  UNL1        0.0036
     14 C          62.9709   87.6622   12.5335 C.ar    1  UNL1        0.0312
     15 C          62.2671   88.6965   11.7059 C.ar    1  UNL1        0.0513
     16 C          61.5221   88.2881   10.4697 C.ar    1  UNL1        0.0341
     17 C          60.8183   89.3224    9.6420 C.ar    1  UNL1        0.0396
     18 C          59.3065   89.7998    6.0870 C.3     1  UNL1        0.2525
     19 O          59.3696   89.9483    7.5782 O.3     1  UNL1       -0.4714
     20 C          63.4744   90.6634   12.8991 C.ar    1  UNL1        0.0482
     21 C          63.4353   90.6519   14.3985 C.ar    1  UNL1        0.0177
     22 C          64.6013   91.1761   15.1832 C.ar    1  UNL1        0.0376
     23 C          65.8063   91.7119   14.4685 C.ar    1  UNL1        0.1310
     24 O          66.9722   92.2361   15.2532 O.3     1  UNL1       -0.5058
     25 C          65.8454   91.7235   12.9690 C.ar    1  UNL1        0.0288
     26 C          64.6794   91.1993   12.1843 C.ar    1  UNL1        0.0147
     27 H          66.9478   92.2289   16.1898 H       1  UNL1        0.2922
     28 C          67.0503   92.2593   12.2543 C.3     1  UNL1        0.1023
     29 N          66.9074   93.4084   11.3007 N.3     1  UNL1       -0.2664
     30 C          67.4260   93.2882    9.8983 C.3     1  UNL1        0.0899
     31 C          67.2830   94.4372    8.9448 C.3     1  UNL1        0.0897
     32 N          66.6215   95.7065    9.3936 N.3     1  UNL1       -0.2691
     33 C          66.4785   96.8555    8.4401 C.3     1  UNL1        0.0897
     34 C          66.1029   95.8267   10.7960 C.3     1  UNL1        0.0897
     35 C          66.2459   94.6776   11.7496 C.3     1  UNL1        0.0899
@<TRIPOS>BOND
     1    18    19    1
     2    19     3    1
     3     3     4   ar
     4     4     5   ar
     5     5     6   ar
     6     6     7   ar
     7     7     8   ar
     8     8     9   ar
     9     9    10   ar
    10    10    11    1
    11    10    12   ar
    12    12    13   ar
    13    13    14   ar
    14    14    15   ar
    15    15     1    1
    16     1    20    1
    17    20    21   ar
    18    21    22   ar
    19    22    23   ar
    20    23    24    1
    21    23    25   ar
    22    25    28    1
    23    28    29    1
    24    29    30    1
    25    30    31    1
    26    31    32    1
    27    32    33    1
    28    32    34    1
    29    34    35    1
    30    25    26   ar
    31    15    16   ar
    32    16    17   ar
    33    17     3   ar
    34    16     6   ar
    35    14     8   ar
    36    26    20   ar
    37    35    29    1
    38     1     2    1
    39    24    27    1
@<TRIPOS>MOLECULE
*****
 35 39 0 0 0
SMALL
GASTEIGER

@<TRIPOS>ATOM
      1 N          64.4857   85.8167   14.3463 N.pl3   1  UNL1       -0.3125
      2 H          65.3051   85.3427   14.6168 H       1  UNL1        0.1522
      3 C          62.6848   88.6036   11.3065 C.ar    1  UNL1        0.1389
      4 C          61.8328   88.0568   10.1998 C.ar    1  UNL1        0.0384
      5 C          61.5810   86.5810   10.1062 C.ar    1  UNL1        0.0223
      6 C          62.1813   85.6521   11.1194 C.ar    1  UNL1        0.0826
      7 N          61.9295   84.1763   11.0259 N.ar    1  UNL1       -0.2452
      8 C          62.5298   83.2474   12.0391 C.ar    1  UNL1        0.0833
      9 C          62.2781   81.7716   11.9456 C.ar    1  UNL1        0.0305
     10 C          62.8784   80.8427   12.9589 C.ar    1  UNL1        0.0592
     11 CL         62.6266   79.3669   12.8653 Cl      1  UNL1       -0.0822
     12 C          63.7305   81.3895   14.0656 C.ar    1  UNL1        0.0115
     13 C          63.9822   82.8652   14.1592 C.ar    1  UNL1        0.0036
     14 C          63.3819   83.7942   13.1460 C.ar    1  UNL1        0.0312
     15 C          63.6337   85.2699   13.2395 C.ar    1  UNL1        0.0513
     16 C          63.0333   86.1989   12.2262 C.ar    1  UNL1        0.0341
     17 C          63.2851   87.6747   12.3197 C.ar    1  UNL1        0.0396
     18 C          62.7946   90.9431   10.1820 C.3     1  UNL1        0.2525
     19 O          62.9366   90.0794   11.4001 O.3     1  UNL1       -0.4714
     20 C          64.0894   87.0858   15.0408 C.ar    1  UNL1        0.0482
     21 C          63.3742   87.0280   16.3580 C.ar    1  UNL1        0.0177
     22 C          62.9779   88.2970   17.0526 C.ar    1  UNL1        0.0376
     23 C          63.2968   89.6239   16.4300 C.ar    1  UNL1        0.1310
     24 O          62.9005   90.8930   17.1246 O.3     1  UNL1       -0.5058
     25 C          64.0122   89.6818   15.1128 C.ar    1  UNL1        0.0288
     26 C          64.4085   88.4127   14.4182 C.ar    1  UNL1        0.0147
     27 H          62.4537   90.8568   17.9474 H       1  UNL1        0.2922
     28 C          64.3311   91.0086   14.4902 C.3     1  UNL1        0.1023
     29 N          65.6466   91.6721   14.7714 N.3     1  UNL1       -0.2664
     30 C          65.8632   92.3869   16.0723 C.3     1  UNL1        0.0899
     31 C          67.1788   93.0504   16.3536 C.3     1  UNL1        0.0897
     32 N          68.2777   92.9992   15.3339 N.3     1  UNL1       -0.2691
     33 C          69.5932   93.6627   15.6152 C.3     1  UNL1        0.0897
     34 C          68.0612   92.2845   14.0331 C.3     1  UNL1        0.0897
     35 C          66.7456   91.6209   13.7518 C.3     1  UNL1        0.0899
@<TRIPOS>BOND
     1    18    19    1
     2    19     3    1
     3     3     4   ar
     4     4     5   ar
     5     5     6   ar
     6     6     7   ar
     7     7     8   ar
     8     8     9   ar
     9     9    10   ar
    10    10    11    1
    11    10    12   ar
    12    12    13   ar
    13    13    14   ar
    14    14    15   ar
    15    15     1    1
    16     1    20    1
    17    20    21   ar
    18    21    22   ar
    19    22    23   ar
    20    23    24    1
    21    23    25   ar
    22    25    28    1
    23    28    29    1
    24    29    30    1
    25    30    31    1
    26    31    32    1
    27    32    33    1
    28    32    34    1
    29    34    35    1
    30    25    26   ar
    31    15    16   ar
    32    16    17   ar
    33    17     3   ar
    34    16     6   ar
    35    14     8   ar
    36    26    20   ar
    37    35    29    1
    38     1     2    1
    39    24    27    1
@<TRIPOS>MOLECULE
*****
 35 39 0 0 0
SMALL
GASTEIGER

@<TRIPOS>ATOM
      1 N          61.1562   88.3555   11.8396 N.pl3   1  UNL1       -0.3125
      2 H          60.2946   88.4061   12.3132 H       1  UNL1        0.1522
      3 C          59.5161   88.2427    7.6507 C.ar    1  UNL1        0.1389
      4 C          59.8146   87.0736    6.7597 C.ar    1  UNL1        0.0384
      5 C          60.6598   85.9420    7.2649 C.ar    1  UNL1        0.0223
      6 C          61.2065   85.9796    8.6612 C.ar    1  UNL1        0.0826
      7 N          62.0517   84.8481    9.1665 N.ar    1  UNL1       -0.2452
      8 C          62.5984   84.8857   10.5628 C.ar    1  UNL1        0.0833
      9 C          63.4436   83.7542   11.0680 C.ar    1  UNL1        0.0305
     10 C          63.9903   83.7918   12.4644 C.ar    1  UNL1        0.0592
     11 CL         64.8355   82.6603   12.9697 Cl      1  UNL1       -0.0822
     12 C          63.6918   84.9609   13.3554 C.ar    1  UNL1        0.0115
     13 C          62.8466   86.0925   12.8502 C.ar    1  UNL1        0.0036
     14 C          62.2999   86.0549   11.4539 C.ar    1  UNL1        0.0312
     15 C          61.4547   87.1864   10.9486 C.ar    1  UNL1        0.0513
     16 C          60.9080   87.1488    9.5522 C.ar    1  UNL1        0.0341
     17 C          60.0628   88.2803    9.0470 C.ar    1  UNL1        0.0396
     18 C          59.0619   90.1012    5.8930 C.3     1  UNL1        0.2525
     19 O          58.6709   89.3742    7.1454 O.3     1  UNL1       -0.4714
     20 C          62.1704   89.4476   12.0091 C.ar    1  UNL1        0.0482
     21 C          62.6109   90.2528   10.8227 C.ar    1  UNL1        0.0177
     22 C          63.6252   91.3448   10.9922 C.ar    1  UNL1        0.0376
     23 C          64.1989   91.6317   12.3481 C.ar    1  UNL1        0.1310
     24 O          65.2132   92.7237   12.5176 O.3     1  UNL1       -0.5058
     25 C          63.7584   90.8265   13.5346 C.ar    1  UNL1        0.0288
     26 C          62.7442   89.7344   13.3651 C.ar    1  UNL1        0.0147
     27 H          65.4883   93.2267   11.7764 H       1  UNL1        0.2922
     28 C          64.3322   91.1134   14.8905 C.3     1  UNL1        0.1023
     29 N          65.7207   91.6667   15.0155 N.3     1  UNL1       -0.2664
     30 C          66.0051   92.7646   15.9972 C.3     1  UNL1        0.0899
     31 C          67.3936   93.3180   16.1222 C.3     1  UNL1        0.0897
     32 N          68.4979   92.7734   15.2655 N.3     1  UNL1       -0.2691
     33 C          69.8865   93.3267   15.3905 C.3     1  UNL1        0.0897
     34 C          68.2137   91.6755   14.2838 C.3     1  UNL1        0.0897
     35 C          66.8250   91.1221   14.1588 C.3     1  UNL1        0.0899
@<TRIPOS>BOND
     1    18    19    1
     2    19     3    1
     3     3     4   ar
     4     4     5   ar
     5     5     6   ar
     6     6     7   ar
     7     7     8   ar
     8     8     9   ar
     9     9    10   ar
    10    10    11    1
    11    10    12   ar
    12    12    13   ar
    13    13    14   ar
    14    14    15   ar
    15    15     1    1
    16     1    20    1
    17    20    21   ar
    18    21    22   ar
    19    22    23   ar
    20    23    24    1
    21    23    25   ar
    22    25    28    1
    23    28    29    1
    24    29    30    1
    25    30    31    1
    26    31    32    1
    27    32    33    1
    28    32    34    1
    29    34    35    1
    30    25    26   ar
    31    15    16   ar
    32    16    17   ar
    33    17     3   ar
    34    16     6   ar
    35    14     8   ar
    36    26    20   ar
    37    35    29    1
    38     1     2    1
    39    24    27    1
@<TRIPOS>MOLECULE
*****
 35 39 0 0 0
SMALL
GASTEIGER

@<TRIPOS>ATOM
      1 N          63.9557   87.2967   14.6973 N.pl3   1  UNL1       -0.3125
      2 H          64.1334   86.5630   15.3293 H       1  UNL1        0.1522
      3 C          63.1884   83.0353   13.4715 C.ar    1  UNL1        0.1389
      4 C          62.6701   82.7321   12.0970 C.ar    1  UNL1        0.0384
      5 C          62.4075   83.8492   11.1311 C.ar    1  UNL1        0.0223
      6 C          62.6632   85.2696   11.5396 C.ar    1  UNL1        0.0826
      7 N          62.4006   86.3867   10.5737 N.ar    1  UNL1       -0.2452
      8 C          62.6563   87.8072   10.9823 C.ar    1  UNL1        0.0833
      9 C          62.3937   88.9243   10.0163 C.ar    1  UNL1        0.0305
     10 C          62.6495   90.3448   10.4249 C.ar    1  UNL1        0.0592
     11 CL         62.3869   91.4619    9.4590 Cl      1  UNL1       -0.0822
     12 C          63.1678   90.6481   11.7994 C.ar    1  UNL1        0.0115
     13 C          63.4304   89.5309   12.7654 C.ar    1  UNL1        0.0036
     14 C          63.1747   88.1105   12.3568 C.ar    1  UNL1        0.0312
     15 C          63.4373   86.9934   13.3228 C.ar    1  UNL1        0.0513
     16 C          63.1815   85.5729   12.9141 C.ar    1  UNL1        0.0341
     17 C          63.4442   84.4558   13.8801 C.ar    1  UNL1        0.0396
     18 C          63.0155   80.5218   14.1055 C.3     1  UNL1        0.2525
     19 O          63.4510   81.9182   14.4375 O.3     1  UNL1       -0.4714
     20 C          64.2032   88.7177   15.1088 C.ar    1  UNL1        0.0482
     21 C          63.2074   89.4324   15.9734 C.ar    1  UNL1        0.0177
     22 C          63.4549   90.8534   16.3850 C.ar    1  UNL1        0.0376
     23 C          64.6982   91.5597   15.9320 C.ar    1  UNL1        0.1310
     24 O          64.9458   92.9808   16.3436 O.3     1  UNL1       -0.5058
     25 C          65.6941   90.8450   15.0674 C.ar    1  UNL1        0.0288
     26 C          65.4466   89.4240   14.6558 C.ar    1  UNL1        0.0147
     27 H          64.3237   93.4272   16.8837 H       1  UNL1        0.2922
     28 C          66.9375   91.5513   14.6145 C.3     1  UNL1        0.1023
     29 N          66.9679   92.2342   13.2793 N.3     1  UNL1       -0.2664
     30 C          67.8506   91.7070   12.1871 C.3     1  UNL1        0.0899
     31 C          67.8810   92.3899   10.8520 C.3     1  UNL1        0.0897
     32 N          67.0287   93.6001   10.6090 N.3     1  UNL1       -0.2691
     33 C          67.0591   94.2830    9.2738 C.3     1  UNL1        0.0897
     34 C          66.1460   94.1274   11.7011 C.3     1  UNL1        0.0897
     35 C          66.1156   93.4445   13.0364 C.3     1  UNL1        0.0899
@<TRIPOS>BOND
     1    18    19    1
     2    19     3    1
     3     3     4   ar
     4     4     5   ar
     5     5     6   ar
     6     6     7   ar
     7     7     8   ar
     8     8     9   ar
     9     9    10   ar
    10    10    11    1
    11    10    12   ar
    12    12    13   ar
    13    13    14   ar
    14    14    15   ar
    15    15     1    1
    16     1    20    1
    17    20    21   ar
    18    21    22   ar
    19    22    23   ar
    20    23    24    1
    21    23    25   ar
    22    25    28    1
    23    28    29    1
    24    29    30    1
    25    30    31    1
    26    31    32    1
    27    32    33    1
    28    32    34    1
    29    34    35    1
    30    25    26   ar
    31    15    16   ar
    32    16    17   ar
    33    17     3   ar
    34    16     6   ar
    35    14     8   ar
    36    26    20   ar
    37    35    29    1
    38     1     2    1
    39    24    27    1
@<TRIPOS>MOLECULE
*****
 35 39 0 0 0
SMALL
GASTEIGER

@<TRIPOS>ATOM
      1 N          59.7598   94.7307    1.4598 N.pl3   1  UNL1       -0.3125
      2 H          59.5649   95.5740    1.9290 H       1  UNL1        0.1522
      3 C          63.9318   94.9802   -0.2081 C.ar    1  UNL1        0.1389
      4 C          65.0019   94.0647    0.3083 C.ar    1  UNL1        0.0384
      5 C          64.6813   93.0659    1.3805 C.ar    1  UNL1        0.0223
      6 C          63.2907   92.9828    1.9365 C.ar    1  UNL1        0.0826
      7 N          62.9701   91.9840    3.0088 N.ar    1  UNL1       -0.2452
      8 C          61.5795   91.9009    3.5647 C.ar    1  UNL1        0.0833
      9 C          61.2589   90.9021    4.6370 C.ar    1  UNL1        0.0305
     10 C          59.8682   90.8190    5.1930 C.ar    1  UNL1        0.0592
     11 CL         59.5476   89.8203    6.2653 Cl      1  UNL1       -0.0822
     12 C          58.7981   91.7345    4.6767 C.ar    1  UNL1        0.0115
     13 C          59.1187   92.7333    3.6044 C.ar    1  UNL1        0.0036
     14 C          60.5093   92.8164    3.0484 C.ar    1  UNL1        0.0312
     15 C          60.8299   93.8152    1.9761 C.ar    1  UNL1        0.0513
     16 C          62.2206   93.8983    1.4202 C.ar    1  UNL1        0.0341
     17 C          62.5411   94.8970    0.3479 C.ar    1  UNL1        0.0396
     18 C          63.6047   95.8658   -2.6285 C.3     1  UNL1        0.2525
     19 O          64.2523   95.9789   -1.2803 O.3     1  UNL1       -0.4714
     20 C          58.9865   94.3614    0.2287 C.ar    1  UNL1        0.0482
     21 C          58.8757   92.9237   -0.1842 C.ar    1  UNL1        0.0177
     22 C          58.1024   92.5544   -1.4153 C.ar    1  UNL1        0.0376
     23 C          57.4400   93.6228   -2.2336 C.ar    1  UNL1        0.1310
     24 O          56.6667   93.2535   -3.4647 O.3     1  UNL1       -0.5058
     25 C          57.5508   95.0606   -1.8207 C.ar    1  UNL1        0.0288
     26 C          58.3240   95.4299   -0.5895 C.ar    1  UNL1        0.0147
     27 H          56.5975   92.3554   -3.7226 H       1  UNL1        0.2922
     28 C          56.8883   96.1291   -2.6389 C.3     1  UNL1        0.1023
     29 N          55.4054   96.0921   -2.8614 N.3     1  UNL1       -0.2664
     30 C          54.4798   95.8435   -1.7074 C.3     1  UNL1        0.0899
     31 C          52.9969   95.8066   -1.9299 C.3     1  UNL1        0.0897
     32 N          52.4395   96.0182   -3.3063 N.3     1  UNL1       -0.2691
     33 C          50.9566   95.9812   -3.5288 C.3     1  UNL1        0.0897
     34 C          53.3650   96.2667   -4.4602 C.3     1  UNL1        0.0897
     35 C          54.8480   96.3037   -4.2378 C.3     1  UNL1        0.0899
@<TRIPOS>BOND
     1    18    19    1
     2    19     3    1
     3     3     4   ar
     4     4     5   ar
     5     5     6   ar
     6     6     7   ar
     7     7     8   ar
     8     8     9   ar
     9     9    10   ar
    10    10    11    1
    11    10    12   ar
    12    12    13   ar
    13    13    14   ar
    14    14    15   ar
    15    15     1    1
    16     1    20    1
    17    20    21   ar
    18    21    22   ar
    19    22    23   ar
    20    23    24    1
    21    23    25   ar
    22    25    28    1
    23    28    29    1
    24    29    30    1
    25    30    31    1
    26    31    32    1
    27    32    33    1
    28    32    34    1
    29    34    35    1
    30    25    26   ar
    31    15    16   ar
    32    16    17   ar
    33    17     3   ar
    34    16     6   ar
    35    14     8   ar
    36    26    20   ar
    37    35    29    1
    38     1     2    1
    39    24    27    1
