@<TRIPOS>MOLECULE
*****
 27 29 0 0 0
SMALL
GASTEIGER

@<TRIPOS>ATOM
      1 C          63.0084   90.1769   11.9386 C.ar    1  UNL1        0.1534
      2 C          63.6576   90.2383   13.2894 C.ar    1  UNL1        0.0351
      3 C          64.7924   91.1883   13.5335 C.ar    1  UNL1        0.0722
      4 CL         65.4417   91.2498   14.8844 Cl      1  UNL1       -0.0809
      5 C          65.2781   92.0768   12.4269 C.ar    1  UNL1        0.0577
      6 C          64.6289   92.0154   11.0761 C.ar    1  UNL1        0.0462
      7 C          63.4941   91.0654   10.8319 C.ar    1  UNL1        0.1602
      8 F          62.8448   91.0040    9.4811 F       1  UNL1       -0.2027
      9 O          62.8097   88.0665   11.8579 O.2     1  UNL1       -0.1498
     10 S          61.8735   89.2269   11.6943 S.O2    1  UNL1        0.0772
     11 O          60.9373   90.3874   11.5308 O.2     1  UNL1       -0.1498
     12 N          60.7387   88.2769   11.4501 N.pl3   1  UNL1       -0.1936
     13 H          60.1847   87.9679   12.2030 H       1  UNL1        0.1758
     14 C          60.4479   87.7977   10.0587 C.ar    1  UNL1        0.1786
     15 N          59.7597   88.5827    8.9817 N.ar    1  UNL1       -0.2214
     16 C          59.6807   87.7195    7.7575 C.ar    1  UNL1        0.1079
     17 C          60.3202   86.4010    8.0780 C.ar    1  UNL1        0.0588
     18 S          60.7943   86.4493    9.5003 S.2     1  UNL1       -0.0497
     19 N          66.4130   93.0268   12.6711 N.pl3   1  UNL1       -0.3299
     20 H          67.2710   92.6901   13.0173 H       1  UNL1        0.1469
     21 C          66.2407   94.4897   12.3880 C.3     1  UNL1        0.1196
     22 C          66.4676   95.0173   11.0022 C.3     1  UNL1        0.1642
     23 C          65.6078   96.1258   10.4716 C.3     1  UNL1        0.1734
     24 O          65.8347   96.6533    9.0859 O.3     1  UNL1       -0.3485
     25 C          66.9215   96.0722    8.2308 C.3     1  UNL1        0.1742
     26 C          67.7814   94.9637    8.7614 C.3     1  UNL1        0.1742
     27 O          67.5544   94.4362   10.1471 O.3     1  UNL1       -0.3493
@<TRIPOS>BOND
     1     9    10    2
     2    10    11    2
     3    10    12    1
     4    12    14    1
     5    14    15   ar
     6    15    16   ar
     7    16    17   ar
     8    17    18   ar
     9    10     1    1
    10     1     2   ar
    11     2     3   ar
    12     3     4    1
    13     3     5   ar
    14     5    19    1
    15    19    21    1
    16    21    22    1
    17    22    23    1
    18    23    24    1
    19    24    25    1
    20    25    26    1
    21    26    27    1
    22     5     6   ar
    23     6     7   ar
    24     7     8    1
    25    18    14   ar
    26     7     1   ar
    27    27    22    1
    28    12    13    1
    29    19    20    1
@<TRIPOS>MOLECULE
*****
 27 29 0 0 0
SMALL
GASTEIGER

@<TRIPOS>ATOM
      1 C          65.6666   92.4401   12.5133 C.ar    1  UNL1        0.1534
      2 C          64.4617   91.8499   11.8428 C.ar    1  UNL1        0.0351
      3 C          63.7638   90.6722   12.4559 C.ar    1  UNL1        0.0722
      4 CL         62.5588   90.0819   11.7853 Cl      1  UNL1       -0.0809
      5 C          64.2708   90.0848   13.7396 C.ar    1  UNL1        0.0577
      6 C          65.4757   90.6751   14.4102 C.ar    1  UNL1        0.0462
      7 C          66.1736   91.8527   13.7971 C.ar    1  UNL1        0.1602
      8 F          67.3786   92.4431   14.4676 F       1  UNL1       -0.2027
      9 O          66.0079   94.4513   13.0952 O.2     1  UNL1       -0.1498
     10 S          66.3646   93.6179   11.9002 S.O2    1  UNL1        0.0772
     11 O          66.7213   92.7844   10.7052 O.2     1  UNL1       -0.1498
     12 N          67.0625   94.7956   11.2871 N.pl3   1  UNL1       -0.1936
     13 H          67.9428   95.0773   11.6262 H       1  UNL1        0.1758
     14 C          66.4192   95.5440   10.1575 C.ar    1  UNL1        0.1786
     15 N          65.0865   96.2310   10.2009 N.ar    1  UNL1       -0.2214
     16 C          64.8394   96.8485    8.8564 C.ar    1  UNL1        0.1079
     17 C          66.0194   96.5431    7.9820 C.ar    1  UNL1        0.0588
     18 S          66.9958   95.7369    8.7862 S.2     1  UNL1       -0.0497
     19 N          63.5728   88.9071   14.3527 N.pl3   1  UNL1       -0.3299
     20 H          62.5912   88.9011   14.4282 H       1  UNL1        0.1469
     21 C          64.3704   87.7385   14.8509 C.3     1  UNL1        0.1196
     22 C          64.1780   86.3831   14.2378 C.3     1  UNL1        0.1642
     23 C          64.9045   85.1965   14.7981 C.3     1  UNL1        0.1734
     24 O          64.7121   83.8411   14.1849 O.3     1  UNL1       -0.3485
     25 C          63.7931   83.6724   13.0115 C.3     1  UNL1        0.1742
     26 C          63.0665   84.8590   12.4512 C.3     1  UNL1        0.1742
     27 O          63.2589   86.2143   13.0644 O.3     1  UNL1       -0.3493
@<TRIPOS>BOND
     1     9    10    2
     2    10    11    2
     3    10    12    1
     4    12    14    1
     5    14    15   ar
     6    15    16   ar
     7    16    17   ar
     8    17    18   ar
     9    10     1    1
    10     1     2   ar
    11     2     3   ar
    12     3     4    1
    13     3     5   ar
    14     5    19    1
    15    19    21    1
    16    21    22    1
    17    22    23    1
    18    23    24    1
    19    24    25    1
    20    25    26    1
    21    26    27    1
    22     5     6   ar
    23     6     7   ar
    24     7     8    1
    25    18    14   ar
    26     7     1   ar
    27    27    22    1
    28    12    13    1
    29    19    20    1
@<TRIPOS>MOLECULE
*****
 27 29 0 0 0
SMALL
GASTEIGER

@<TRIPOS>ATOM
      1 C          64.6881   91.6311   11.9350 C.ar    1  UNL1        0.1534
      2 C          63.7358   91.5062   10.7828 C.ar    1  UNL1        0.0351
      3 C          62.7342   90.3901   10.7553 C.ar    1  UNL1        0.0722
      4 CL         61.7818   90.2652    9.6031 Cl      1  UNL1       -0.0809
      5 C          62.6848   89.3987   11.8799 C.ar    1  UNL1        0.0577
      6 C          63.6371   89.5235   13.0321 C.ar    1  UNL1        0.0462
      7 C          64.6387   90.6397   13.0596 C.ar    1  UNL1        0.1602
      8 F          65.5911   90.7646   14.2118 F       1  UNL1       -0.2027
      9 O          66.1342   92.3827   10.5771 O.2     1  UNL1       -0.1498
     10 S          65.6898   92.7473   11.9626 S.O2    1  UNL1        0.0772
     11 O          65.2455   93.1119   13.3481 O.2     1  UNL1       -0.1498
     12 N          66.6915   93.8634   11.9901 N.pl3   1  UNL1       -0.1936
     13 H          67.3150   93.9467   12.7475 H       1  UNL1        0.1758
     14 C          66.7433   94.8527   10.8638 C.ar    1  UNL1        0.1786
     15 N          67.7459   94.8670    9.7482 N.ar    1  UNL1       -0.2214
     16 C          67.4237   96.0245    8.8502 C.ar    1  UNL1        0.1079
     17 C          66.2220   96.7257    9.4108 C.ar    1  UNL1        0.0588
     18 S          65.8014   96.0014   10.6554 S.2     1  UNL1       -0.0497
     19 N          61.6831   88.2825   11.8523 N.pl3   1  UNL1       -0.3299
     20 H          60.8353   88.3696   12.3452 H       1  UNL1        0.1469
     21 C          61.9731   87.0336   11.0738 C.3     1  UNL1        0.1196
     22 C          62.6468   85.8722   11.7427 C.3     1  UNL1        0.1642
     23 C          62.7243   84.5466   11.0451 C.3     1  UNL1        0.1734
     24 O          63.3980   83.3854   11.7140 O.3     1  UNL1       -0.3485
     25 C          63.9941   83.5496   13.0806 C.3     1  UNL1        0.1742
     26 C          63.9166   84.8752   13.7783 C.3     1  UNL1        0.1742
     27 O          63.2429   86.0365   13.1093 O.3     1  UNL1       -0.3493
@<TRIPOS>BOND
     1     9    10    2
     2    10    11    2
     3    10    12    1
     4    12    14    1
     5    14    15   ar
     6    15    16   ar
     7    16    17   ar
     8    17    18   ar
     9    10     1    1
    10     1     2   ar
    11     2     3   ar
    12     3     4    1
    13     3     5   ar
    14     5    19    1
    15    19    21    1
    16    21    22    1
    17    22    23    1
    18    23    24    1
    19    24    25    1
    20    25    26    1
    21    26    27    1
    22     5     6   ar
    23     6     7   ar
    24     7     8    1
    25    18    14   ar
    26     7     1   ar
    27    27    22    1
    28    12    13    1
    29    19    20    1
@<TRIPOS>MOLECULE
*****
 27 29 0 0 0
SMALL
GASTEIGER

@<TRIPOS>ATOM
      1 C          63.6075   86.3369   15.5528 C.ar    1  UNL1        0.1534
      2 C          63.8916   87.1206   14.3058 C.ar    1  UNL1        0.0351
      3 C          63.8480   88.6196   14.3358 C.ar    1  UNL1        0.0722
      4 CL         64.1322   89.4033   13.0888 Cl      1  UNL1       -0.0809
      5 C          63.5203   89.3350   15.6129 C.ar    1  UNL1        0.0577
      6 C          63.2362   88.5513   16.8599 C.ar    1  UNL1        0.0462
      7 C          63.2798   87.0523   16.8298 C.ar    1  UNL1        0.1602
      8 F          62.9956   86.2685   18.0769 F       1  UNL1       -0.2027
      9 O          65.1088   84.8872   15.1728 O.2     1  UNL1       -0.1498
     10 S          63.6510   84.8378   15.5228 S.O2    1  UNL1        0.0772
     11 O          62.1933   84.7884   15.8728 O.2     1  UNL1       -0.1498
     12 N          63.6946   83.3387   15.4928 N.pl3   1  UNL1       -0.1936
     13 H          63.9770   82.8384   16.2923 H       1  UNL1        0.1758
     14 C          63.3081   82.6020   14.2446 C.ar    1  UNL1        0.1786
     15 N          63.1594   81.1156   14.1084 N.ar    1  UNL1       -0.2214
     16 C          62.7618   80.8173   12.6932 C.ar    1  UNL1        0.1079
     17 C          62.6648   82.1193   11.9547 C.ar    1  UNL1        0.0588
     18 S          63.0024   83.2224   12.9136 S.2     1  UNL1       -0.0497
     19 N          63.4768   90.8341   15.6429 N.pl3   1  UNL1       -0.3299
     20 H          62.6140   91.3030   15.5719 H       1  UNL1        0.1469
     21 C          64.7477   91.6187   15.7809 C.3     1  UNL1        0.1196
     22 C          65.5628   91.9462   14.5650 C.3     1  UNL1        0.1642
     23 C          67.0492   91.7459   14.5822 C.3     1  UNL1        0.1734
     24 O          67.8643   92.0734   13.3664 O.3     1  UNL1       -0.3485
     25 C          67.1928   92.6011   12.1332 C.3     1  UNL1        0.1742
     26 C          65.7064   92.8014   12.1159 C.3     1  UNL1        0.1742
     27 O          64.8914   92.4740   13.3318 O.3     1  UNL1       -0.3493
@<TRIPOS>BOND
     1     9    10    2
     2    10    11    2
     3    10    12    1
     4    12    14    1
     5    14    15   ar
     6    15    16   ar
     7    16    17   ar
     8    17    18   ar
     9    10     1    1
    10     1     2   ar
    11     2     3   ar
    12     3     4    1
    13     3     5   ar
    14     5    19    1
    15    19    21    1
    16    21    22    1
    17    22    23    1
    18    23    24    1
    19    24    25    1
    20    25    26    1
    21    26    27    1
    22     5     6   ar
    23     6     7   ar
    24     7     8    1
    25    18    14   ar
    26     7     1   ar
    27    27    22    1
    28    12    13    1
    29    19    20    1
@<TRIPOS>MOLECULE
*****
 27 29 0 0 0
SMALL
GASTEIGER

@<TRIPOS>ATOM
      1 C          63.6854   90.7309   11.9081 C.ar    1  UNL1        0.1534
      2 C          62.7014   90.7538   10.7763 C.ar    1  UNL1        0.0351
      3 C          61.8192   89.5669   10.5254 C.ar    1  UNL1        0.0722
      4 CL         60.8351   89.5897    9.3935 Cl      1  UNL1       -0.0809
      5 C          61.9212   88.3571   11.4063 C.ar    1  UNL1        0.0577
      6 C          62.9052   88.3342   12.5381 C.ar    1  UNL1        0.0462
      7 C          63.7874   89.5212   12.7890 C.ar    1  UNL1        0.1602
      8 F          64.7715   89.4983   13.9209 F       1  UNL1       -0.2027
      9 O          64.9996   91.9005   10.7227 O.2     1  UNL1       -0.1498
     10 S          64.5676   91.9179   12.1590 S.O2    1  UNL1        0.0772
     11 O          64.1357   91.9354   13.5953 O.2     1  UNL1       -0.1498
     12 N          65.4498   93.1048   12.4099 N.pl3   1  UNL1       -0.1936
     13 H          65.3242   93.9304   11.8885 H       1  UNL1        0.1758
     14 C          66.5233   93.0339   13.4552 C.ar    1  UNL1        0.1786
     15 N          66.6960   93.9788   14.6072 N.ar    1  UNL1       -0.2214
     16 C          67.8920   93.5344   15.3960 C.ar    1  UNL1        0.1079
     17 C          68.4585   92.3148   14.7314 C.ar    1  UNL1        0.0588
     18 S          67.6125   92.0054   13.5318 S.2     1  UNL1       -0.0497
     19 N          61.0390   87.1701   11.1554 N.pl3   1  UNL1       -0.3299
     20 H          60.0803   87.2141   11.3750 H       1  UNL1        0.1469
     21 C          61.6174   85.9161   10.5698 C.3     1  UNL1        0.1196
     22 C          62.4065   84.9788   11.4353 C.3     1  UNL1        0.1642
     23 C          63.3693   84.0128   10.8111 C.3     1  UNL1        0.1734
     24 O          64.1583   83.0755   11.6765 O.3     1  UNL1       -0.3485
     25 C          63.9846   83.1044   13.1662 C.3     1  UNL1        0.1742
     26 C          63.0218   84.0705   13.7903 C.3     1  UNL1        0.1742
     27 O          62.2327   85.0077   12.9249 O.3     1  UNL1       -0.3493
@<TRIPOS>BOND
     1     9    10    2
     2    10    11    2
     3    10    12    1
     4    12    14    1
     5    14    15   ar
     6    15    16   ar
     7    16    17   ar
     8    17    18   ar
     9    10     1    1
    10     1     2   ar
    11     2     3   ar
    12     3     4    1
    13     3     5   ar
    14     5    19    1
    15    19    21    1
    16    21    22    1
    17    22    23    1
    18    23    24    1
    19    24    25    1
    20    25    26    1
    21    26    27    1
    22     5     6   ar
    23     6     7   ar
    24     7     8    1
    25    18    14   ar
    26     7     1   ar
    27    27    22    1
    28    12    13    1
    29    19    20    1
@<TRIPOS>MOLECULE
*****
 27 29 0 0 0
SMALL
GASTEIGER

@<TRIPOS>ATOM
      1 C          64.8519   91.7310   11.9697 C.ar    1  UNL1        0.1534
      2 C          64.8815   90.7421   13.0971 C.ar    1  UNL1        0.0351
      3 C          63.9054   89.6034   13.1217 C.ar    1  UNL1        0.0722
      4 CL         63.9349   88.6144   14.2492 Cl      1  UNL1       -0.0809
      5 C          62.8997   89.4537   12.0189 C.ar    1  UNL1        0.0577
      6 C          62.8702   90.4426   10.8915 C.ar    1  UNL1        0.0462
      7 C          63.8462   91.5812   10.8669 C.ar    1  UNL1        0.1602
      8 F          63.8167   92.5702    9.7394 F       1  UNL1       -0.2027
      9 O          65.3664   93.2949   13.3074 O.2     1  UNL1       -0.1498
     10 S          65.8280   92.8697   11.9451 S.O2    1  UNL1        0.0772
     11 O          66.2896   92.4446   10.5827 O.2     1  UNL1       -0.1498
     12 N          66.8041   94.0084   11.9205 N.pl3   1  UNL1       -0.1936
     13 H          67.4758   94.0965   12.6348 H       1  UNL1        0.1758
     14 C          66.7567   95.0130   10.8075 C.ar    1  UNL1        0.1786
     15 N          67.7692   95.1625    9.7110 N.ar    1  UNL1       -0.2214
     16 C          67.3267   96.2863    8.8215 C.ar    1  UNL1        0.1079
     17 C          66.0406   96.8315    9.3683 C.ar    1  UNL1        0.0588
     18 S          65.6883   96.0444   10.5958 S.2     1  UNL1       -0.0497
     19 N          61.9236   88.3149   12.0436 N.pl3   1  UNL1       -0.3299
     20 H          62.0705   87.5538   12.6504 H       1  UNL1        0.1469
     21 C          60.7238   88.3360   11.1436 C.3     1  UNL1        0.1196
     22 C          60.6953   87.4808    9.9115 C.3     1  UNL1        0.1642
     23 C          61.9036   86.6799    9.5264 C.3     1  UNL1        0.1734
     24 O          61.8750   85.8247    8.2944 O.3     1  UNL1       -0.3485
     25 C          60.6381   85.7705    7.4476 C.3     1  UNL1        0.1742
     26 C          59.4298   86.5714    7.8327 C.3     1  UNL1        0.1742
     27 O          59.4583   87.4265    9.0647 O.3     1  UNL1       -0.3493
@<TRIPOS>BOND
     1     9    10    2
     2    10    11    2
     3    10    12    1
     4    12    14    1
     5    14    15   ar
     6    15    16   ar
     7    16    17   ar
     8    17    18   ar
     9    10     1    1
    10     1     2   ar
    11     2     3   ar
    12     3     4    1
    13     3     5   ar
    14     5    19    1
    15    19    21    1
    16    21    22    1
    17    22    23    1
    18    23    24    1
    19    24    25    1
    20    25    26    1
    21    26    27    1
    22     5     6   ar
    23     6     7   ar
    24     7     8    1
    25    18    14   ar
    26     7     1   ar
    27    27    22    1
    28    12    13    1
    29    19    20    1
@<TRIPOS>MOLECULE
*****
 27 29 0 0 0
SMALL
GASTEIGER

@<TRIPOS>ATOM
      1 C          64.2636   91.1211   12.0486 C.ar    1  UNL1        0.1534
      2 C          64.4370   90.0274   13.0604 C.ar    1  UNL1        0.0351
      3 C          63.6376   88.7636   12.9430 C.ar    1  UNL1        0.0722
      4 CL         63.8110   87.6698   13.9548 Cl      1  UNL1       -0.0809
      5 C          62.6649   88.5935   11.8139 C.ar    1  UNL1        0.0577
      6 C          62.4916   89.6872   10.8021 C.ar    1  UNL1        0.0462
      7 C          63.2909   90.9510   10.9195 C.ar    1  UNL1        0.1602
      8 F          63.1176   92.0448    9.9077 F       1  UNL1       -0.2027
      9 O          64.8212   92.4004   13.6463 O.2     1  UNL1       -0.1498
     10 S          65.0630   92.3850   12.1660 S.O2    1  UNL1        0.0772
     11 O          65.3047   92.3696   10.6857 O.2     1  UNL1       -0.1498
     12 N          65.8623   93.6488   12.2834 N.pl3   1  UNL1       -0.1936
     13 H          66.0491   94.0324   13.1706 H       1  UNL1        0.1758
     14 C          66.3769   94.3281   11.0489 C.ar    1  UNL1        0.1786
     15 N          67.6027   93.9415   10.2758 N.ar    1  UNL1       -0.2214
     16 C          67.7395   94.8878    9.1200 C.ar    1  UNL1        0.1079
     17 C          66.5981   95.8593    9.1789 C.ar    1  UNL1        0.0588
     18 S          65.7560   95.5134   10.3711 S.2     1  UNL1       -0.0497
     19 N          61.8656   87.3296   11.6966 N.pl3   1  UNL1       -0.3299
     20 H          61.1257   87.1552   12.3222 H       1  UNL1        0.1469
     21 C          62.1935   86.3315   10.6260 C.3     1  UNL1        0.1196
     22 C          62.8076   85.0129   10.9926 C.3     1  UNL1        0.1642
     23 C          62.7135   84.5076   12.4018 C.3     1  UNL1        0.1734
     24 O          63.3276   83.1891   12.7683 O.3     1  UNL1       -0.3485
     25 C          64.0358   82.3759   11.7257 C.3     1  UNL1        0.1742
     26 C          64.1299   82.8811   10.3165 C.3     1  UNL1        0.1742
     27 O          63.5158   84.1996    9.9500 O.3     1  UNL1       -0.3493
@<TRIPOS>BOND
     1     9    10    2
     2    10    11    2
     3    10    12    1
     4    12    14    1
     5    14    15   ar
     6    15    16   ar
     7    16    17   ar
     8    17    18   ar
     9    10     1    1
    10     1     2   ar
    11     2     3   ar
    12     3     4    1
    13     3     5   ar
    14     5    19    1
    15    19    21    1
    16    21    22    1
    17    22    23    1
    18    23    24    1
    19    24    25    1
    20    25    26    1
    21    26    27    1
    22     5     6   ar
    23     6     7   ar
    24     7     8    1
    25    18    14   ar
    26     7     1   ar
    27    27    22    1
    28    12    13    1
    29    19    20    1
@<TRIPOS>MOLECULE
*****
 27 29 0 0 0
SMALL
GASTEIGER

@<TRIPOS>ATOM
      1 C          63.0427   88.9194   12.3400 C.ar    1  UNL1        0.1534
      2 C          62.2210   88.7715   11.0939 C.ar    1  UNL1        0.0351
      3 C          61.9209   87.4058   10.5511 C.ar    1  UNL1        0.0722
      4 CL         61.0992   87.2578    9.3050 Cl      1  UNL1       -0.0809
      5 C          62.4426   86.1879   11.2545 C.ar    1  UNL1        0.0577
      6 C          63.2643   86.3358   12.5006 C.ar    1  UNL1        0.0462
      7 C          63.5644   87.7016   13.0434 C.ar    1  UNL1        0.1602
      8 F          64.3862   87.8495   14.2895 F       1  UNL1       -0.2027
      9 O          64.0371   90.6417   11.6019 O.2     1  UNL1       -0.1498
     10 S          63.3428   90.2852   12.8829 S.O2    1  UNL1        0.0772
     11 O          62.6486   89.9287   14.1638 O.2     1  UNL1       -0.1498
     12 N          63.6429   91.6510   13.4256 N.pl3   1  UNL1       -0.1936
     13 H          62.9179   92.3084   13.5327 H       1  UNL1        0.1758
     14 C          65.0477   92.0152   13.8052 C.ar    1  UNL1        0.1786
     15 N          65.8101   93.2123   13.3197 N.ar    1  UNL1       -0.2214
     16 C          67.1702   93.1831   13.9514 C.ar    1  UNL1        0.1079
     17 C          67.2486   91.9680   14.8274 C.ar    1  UNL1        0.0588
     18 S          65.9367   91.2461   14.7370 S.2     1  UNL1       -0.0497
     19 N          62.1425   84.8221   10.7116 N.pl3   1  UNL1       -0.3299
     20 H          61.3053   84.6611   10.2193 H       1  UNL1        0.1469
     21 C          63.1179   83.7017   10.9190 C.3     1  UNL1        0.1196
     22 C          62.8095   82.6109   11.9014 C.3     1  UNL1        0.1642
     23 C          62.9481   81.1738   11.4945 C.3     1  UNL1        0.1734
     24 O          62.6396   80.0831   12.4770 O.3     1  UNL1       -0.3485
     25 C          62.1926   80.4295   13.8663 C.3     1  UNL1        0.1742
     26 C          62.0540   81.8665   14.2732 C.3     1  UNL1        0.1742
     27 O          62.3625   82.9572   13.2908 O.3     1  UNL1       -0.3493
@<TRIPOS>BOND
     1     9    10    2
     2    10    11    2
     3    10    12    1
     4    12    14    1
     5    14    15   ar
     6    15    16   ar
     7    16    17   ar
     8    17    18   ar
     9    10     1    1
    10     1     2   ar
    11     2     3   ar
    12     3     4    1
    13     3     5   ar
    14     5    19    1
    15    19    21    1
    16    21    22    1
    17    22    23    1
    18    23    24    1
    19    24    25    1
    20    25    26    1
    21    26    27    1
    22     5     6   ar
    23     6     7   ar
    24     7     8    1
    25    18    14   ar
    26     7     1   ar
    27    27    22    1
    28    12    13    1
    29    19    20    1
@<TRIPOS>MOLECULE
*****
 27 29 0 0 0
SMALL
GASTEIGER

@<TRIPOS>ATOM
      1 C          64.0650   90.9322   12.2651 C.ar    1  UNL1        0.1534
      2 C          63.1217   91.0292   11.1029 C.ar    1  UNL1        0.0351
      3 C          62.1990   89.8891   10.7888 C.ar    1  UNL1        0.0722
      4 CL         61.2555   89.9861    9.6266 Cl      1  UNL1       -0.0809
      5 C          62.2196   88.6520   11.6369 C.ar    1  UNL1        0.0577
      6 C          63.1629   88.5550   12.7990 C.ar    1  UNL1        0.0462
      7 C          64.0857   89.6951   13.1131 C.ar    1  UNL1        0.1602
      8 F          65.0291   89.5982   14.2753 F       1  UNL1       -0.2027
      9 O          64.5210   92.0574   14.0046 O.2     1  UNL1       -0.1498
     10 S          64.9878   92.0723   12.5792 S.O2    1  UNL1        0.0772
     11 O          65.4547   92.0873   11.1538 O.2     1  UNL1       -0.1498
     12 N          65.9106   93.2124   12.8934 N.pl3   1  UNL1       -0.1936
     13 H          65.7415   94.1028   12.5090 H       1  UNL1        0.1758
     14 C          67.0910   92.9958   13.7933 C.ar    1  UNL1        0.1786
     15 N          68.2606   92.0994   13.5131 N.ar    1  UNL1       -0.2214
     16 C          69.2014   92.1872   14.6780 C.ar    1  UNL1        0.1079
     17 C          68.6134   93.1380   15.6782 C.ar    1  UNL1        0.0588
     18 S          67.3090   93.6377   15.1314 S.2     1  UNL1       -0.0497
     19 N          61.2968   87.5119   11.3227 N.pl3   1  UNL1       -0.3299
     20 H          60.3242   87.6223   11.4282 H       1  UNL1        0.1469
     21 C          61.8558   86.2035   10.8479 C.3     1  UNL1        0.1196
     22 C          61.7158   85.8063    9.4081 C.3     1  UNL1        0.1642
     23 C          60.4329   86.0727    8.6780 C.3     1  UNL1        0.1734
     24 O          60.2929   85.6755    7.2384 O.3     1  UNL1       -0.3485
     25 C          61.4358   85.0120    6.5288 C.3     1  UNL1        0.1742
     26 C          62.7188   84.7457    7.2590 C.3     1  UNL1        0.1742
     27 O          62.8587   85.1428    8.6986 O.3     1  UNL1       -0.3493
@<TRIPOS>BOND
     1     9    10    2
     2    10    11    2
     3    10    12    1
     4    12    14    1
     5    14    15   ar
     6    15    16   ar
     7    16    17   ar
     8    17    18   ar
     9    10     1    1
    10     1     2   ar
    11     2     3   ar
    12     3     4    1
    13     3     5   ar
    14     5    19    1
    15    19    21    1
    16    21    22    1
    17    22    23    1
    18    23    24    1
    19    24    25    1
    20    25    26    1
    21    26    27    1
    22     5     6   ar
    23     6     7   ar
    24     7     8    1
    25    18    14   ar
    26     7     1   ar
    27    27    22    1
    28    12    13    1
    29    19    20    1
