@<TRIPOS>MOLECULE
*****
 33 37 0 0 0
SMALL
GASTEIGER

@<TRIPOS>ATOM
      1 N          62.0533   88.2503   10.8663 N.3     1  UNL1       -0.2695
      2 C          61.2213   89.4446   10.5039 C.3     1  UNL1        0.0939
      3 C          60.2965   89.3844    9.3243 C.3     1  UNL1        0.1107
      4 N          60.2037   88.1299    8.5073 N.am    1  UNL1       -0.2764
      5 C          59.2789   88.0697    7.3278 C.2     1  UNL1        0.2302
      6 O          59.1861   86.8152    6.5108 O.2     1  UNL1       -0.2745
      7 C          61.0357   86.9355    8.8698 C.3     1  UNL1        0.1107
      8 C          61.9605   86.9958   10.0492 C.3     1  UNL1        0.0939
      9 C          62.9780   88.3104   12.0458 C.3     1  UNL1        0.0769
     10 C          62.9709   89.5118   12.9439 C.3     1  UNL1        0.0433
     11 C          64.5822   90.7838   15.1316 C.3     1  UNL1        0.0305
     12 C          64.6640   91.3180   13.7323 C.ar    1  UNL1       -0.0260
     13 C          63.8583   90.6820   12.6384 C.ar    1  UNL1       -0.0249
     14 C          63.9401   91.2161   11.2392 C.ar    1  UNL1       -0.0043
     15 C          64.8274   92.3862   10.9337 C.ar    1  UNL1        0.0059
     16 C          65.6331   93.0222   12.0274 C.ar    1  UNL1        0.0748
     17 C          65.5514   92.4881   13.4268 C.ar    1  UNL1        0.0233
     18 C          66.4557   93.3148   14.2920 C.3     1  UNL1        0.2352
     19 O          67.0964   94.3598   13.4275 O.3     1  UNL1       -0.4404
     20 C          66.5880   94.1790   12.0279 C.2     1  UNL1        0.3413
     21 O          66.9678   95.0092   10.8377 O.2     1  UNL1       -0.2449
     22 C          58.4469   89.2641    6.9654 C.3     1  UNL1        0.1131
     23 C          58.9426   90.2400    5.9398 C.ar    1  UNL1        0.0062
     24 C          60.4052   90.3068    5.6135 C.ar    1  UNL1        0.0009
     25 C          60.9010   91.2828    4.5879 C.ar    1  UNL1        0.0386
     26 C          59.9342   92.1918    3.8886 C.ar    1  UNL1        0.1672
     27 N          58.4716   92.1249    4.2150 N.ar    1  UNL1       -0.2252
     28 C          57.9759   91.1490    5.2405 C.ar    1  UNL1        0.0968
     29 N          60.4299   93.1677    2.8630 N.ar    1  UNL1       -0.1708
     30 C          61.4695   92.8952    1.8166 C.ar    1  UNL1        0.2272
     31 N          61.6551   94.1466    1.0107 N.ar    1  UNL1       -0.1044
     32 N          60.7302   95.1926    1.5590 N.ar    1  UNL1       -0.0222
     33 N          59.9730   94.5875    2.7038 N.ar    1  UNL1       -0.0371
@<TRIPOS>BOND
     1    11    12    1
     2    12    13   ar
     3    13    10    1
     4    10     9    1
     5     9     1    1
     6     1     2    1
     7     2     3    1
     8     3     4    1
     9     4     5   am
    10     5     6    2
    11     5    22    1
    12    22    23    1
    13    23    24   ar
    14    24    25   ar
    15    25    26   ar
    16    26    29    1
    17    29    30   ar
    18    30    31   ar
    19    31    32   ar
    20    32    33   ar
    21    26    27   ar
    22    27    28   ar
    23     4     7    1
    24     7     8    1
    25    13    14   ar
    26    14    15   ar
    27    15    16   ar
    28    16    17   ar
    29    17    18    1
    30    18    19    1
    31    19    20    1
    32    20    21    2
    33    17    12   ar
    34     8     1    1
    35    20    16    1
    36    28    23   ar
    37    33    29   ar
@<TRIPOS>MOLECULE
*****
 33 37 0 0 0
SMALL
GASTEIGER

@<TRIPOS>ATOM
      1 N          63.7365   87.1989   15.6835 N.3     1  UNL1       -0.2695
      2 C          63.8634   87.2094   14.1889 C.3     1  UNL1        0.0939
      3 C          63.9084   85.9157   13.4310 C.3     1  UNL1        0.1107
      4 N          63.8265   84.6116   14.1677 N.am    1  UNL1       -0.2764
      5 C          63.8715   83.3180   13.4097 C.2     1  UNL1        0.2302
      6 O          63.7895   82.0139   14.1463 O.2     1  UNL1       -0.2745
      7 C          63.6996   84.6012   15.6623 C.3     1  UNL1        0.1107
      8 C          63.6546   85.8949   16.4202 C.3     1  UNL1        0.0939
      9 C          63.6915   88.4926   16.4415 C.3     1  UNL1        0.0769
     10 C          63.0738   89.7076   15.8154 C.3     1  UNL1        0.0433
     11 C          62.1753   89.8382   12.9560 C.3     1  UNL1        0.0305
     12 C          63.4031   90.5821   13.3910 C.ar    1  UNL1       -0.0260
     13 C          63.8524   90.5168   14.8208 C.ar    1  UNL1       -0.0249
     14 C          65.0800   91.2607   15.2559 C.ar    1  UNL1       -0.0043
     15 C          65.8586   92.0698   14.2613 C.ar    1  UNL1        0.0059
     16 C          65.4094   92.1352   12.8317 C.ar    1  UNL1        0.0748
     17 C          64.1816   91.3913   12.3965 C.ar    1  UNL1        0.0233
     18 C          63.9830   91.6416   10.9310 C.3     1  UNL1        0.2352
     19 O          65.0881   92.5402   10.4603 O.3     1  UNL1       -0.4404
     20 C          65.9696   92.8452   11.6350 C.2     1  UNL1        0.3413
     21 O          67.1960   93.7087   11.6163 O.2     1  UNL1       -0.2449
     22 C          63.9984   83.3285   11.9151 C.3     1  UNL1        0.1131
     23 C          63.1519   84.2581   11.0971 C.ar    1  UNL1        0.0062
     24 C          63.4524   84.4611    9.6416 C.ar    1  UNL1        0.0009
     25 C          62.6059   85.3908    8.8235 C.ar    1  UNL1        0.0386
     26 C          61.4589   86.1175    9.4610 C.ar    1  UNL1        0.1672
     27 N          61.1585   85.9145   10.9165 N.ar    1  UNL1       -0.2252
     28 C          62.0049   84.9848   11.7346 C.ar    1  UNL1        0.0968
     29 N          60.6124   87.0472    8.6430 N.ar    1  UNL1       -0.1708
     30 C          59.5694   86.6413    7.6443 C.ar    1  UNL1        0.2272
     31 N          58.9728   87.8893    7.0642 N.ar    1  UNL1       -0.1044
     32 N          59.6470   89.0665    7.7044 N.ar    1  UNL1       -0.0222
     33 N          60.6603   88.5459    8.6801 N.ar    1  UNL1       -0.0371
@<TRIPOS>BOND
     1    11    12    1
     2    12    13   ar
     3    13    10    1
     4    10     9    1
     5     9     1    1
     6     1     2    1
     7     2     3    1
     8     3     4    1
     9     4     5   am
    10     5     6    2
    11     5    22    1
    12    22    23    1
    13    23    24   ar
    14    24    25   ar
    15    25    26   ar
    16    26    29    1
    17    29    30   ar
    18    30    31   ar
    19    31    32   ar
    20    32    33   ar
    21    26    27   ar
    22    27    28   ar
    23     4     7    1
    24     7     8    1
    25    13    14   ar
    26    14    15   ar
    27    15    16   ar
    28    16    17   ar
    29    17    18    1
    30    18    19    1
    31    19    20    1
    32    20    21    2
    33    17    12   ar
    34     8     1    1
    35    20    16    1
    36    28    23   ar
    37    33    29   ar
@<TRIPOS>MOLECULE
*****
 33 37 0 0 0
SMALL
GASTEIGER

@<TRIPOS>ATOM
      1 N          62.1670   86.9398    9.8607 N.3     1  UNL1       -0.2695
      2 C          62.1965   86.4495   11.2780 C.3     1  UNL1        0.0939
      3 C          62.7525   85.0918   11.5905 C.3     1  UNL1        0.1107
      4 N          63.2790   84.2244   10.4857 N.am    1  UNL1       -0.2764
      5 C          63.8349   82.8668   10.7982 C.2     1  UNL1        0.2302
      6 O          64.3614   81.9994    9.6935 O.2     1  UNL1       -0.2745
      7 C          63.2494   84.7148    9.0684 C.3     1  UNL1        0.1107
      8 C          62.6934   86.0724    8.7559 C.3     1  UNL1        0.0939
      9 C          61.6110   88.2974    9.5482 C.3     1  UNL1        0.0769
     10 C          61.4492   89.3115   10.6415 C.3     1  UNL1        0.0433
     11 C          62.6252   89.2738   13.4012 C.3     1  UNL1        0.0305
     12 C          63.1716   90.2116   12.3659 C.ar    1  UNL1       -0.0260
     13 C          62.5836   90.2305   10.9860 C.ar    1  UNL1       -0.0249
     14 C          63.1300   91.1683    9.9507 C.ar    1  UNL1       -0.0043
     15 C          64.2644   92.0873   10.2952 C.ar    1  UNL1        0.0059
     16 C          64.8524   92.0684   11.6750 C.ar    1  UNL1        0.0748
     17 C          64.3060   91.1306   12.7103 C.ar    1  UNL1        0.0233
     18 C          65.0828   91.3351   13.9771 C.3     1  UNL1        0.2352
     19 O          66.1094   92.3992   13.7246 O.3     1  UNL1       -0.4404
     20 C          65.9669   92.8525   12.3018 C.2     1  UNL1        0.3413
     21 O          66.7939   93.9050   11.6248 O.2     1  UNL1       -0.2449
     22 C          63.8644   82.3765   12.2156 C.3     1  UNL1        0.1131
     23 C          63.6612   83.3402   13.3468 C.ar    1  UNL1        0.0062
     24 C          64.7559   84.2929   13.7262 C.ar    1  UNL1        0.0009
     25 C          64.5528   85.2568   14.8576 C.ar    1  UNL1        0.0386
     26 C          63.2549   85.2679   15.6095 C.ar    1  UNL1        0.1672
     27 N          62.1602   84.3151   15.2300 N.ar    1  UNL1       -0.2252
     28 C          62.3633   83.3513   14.0987 C.ar    1  UNL1        0.0968
     29 N          63.0517   86.2316   16.7407 N.ar    1  UNL1       -0.1708
     30 C          63.3616   87.6990   16.7154 C.ar    1  UNL1        0.2272
     31 N          63.0043   88.2714   18.0550 N.ar    1  UNL1       -0.1044
     32 N          62.4735   87.1578   18.9084 N.ar    1  UNL1       -0.0222
     33 N          62.5028   85.8972   18.0960 N.ar    1  UNL1       -0.0371
@<TRIPOS>BOND
     1    11    12    1
     2    12    13   ar
     3    13    10    1
     4    10     9    1
     5     9     1    1
     6     1     2    1
     7     2     3    1
     8     3     4    1
     9     4     5   am
    10     5     6    2
    11     5    22    1
    12    22    23    1
    13    23    24   ar
    14    24    25   ar
    15    25    26   ar
    16    26    29    1
    17    29    30   ar
    18    30    31   ar
    19    31    32   ar
    20    32    33   ar
    21    26    27   ar
    22    27    28   ar
    23     4     7    1
    24     7     8    1
    25    13    14   ar
    26    14    15   ar
    27    15    16   ar
    28    16    17   ar
    29    17    18    1
    30    18    19    1
    31    19    20    1
    32    20    21    2
    33    17    12   ar
    34     8     1    1
    35    20    16    1
    36    28    23   ar
    37    33    29   ar
@<TRIPOS>MOLECULE
*****
 33 37 0 0 0
SMALL
GASTEIGER

@<TRIPOS>ATOM
      1 N          62.3397   85.9191    9.1080 N.3     1  UNL1       -0.2695
      2 C          63.0329   87.2395    8.9466 C.3     1  UNL1        0.0939
      3 C          62.4858   88.4614    9.6232 C.3     1  UNL1        0.1107
      4 N          61.2456   88.3629   10.4611 N.am    1  UNL1       -0.2764
      5 C          60.6987   89.5849   11.1377 C.2     1  UNL1        0.2302
      6 O          59.4585   89.4864   11.9756 O.2     1  UNL1       -0.2745
      7 C          60.5525   87.0425   10.6225 C.3     1  UNL1        0.1107
      8 C          61.0995   85.8206    9.9460 C.3     1  UNL1        0.0939
      9 C          62.8867   84.6972    8.4315 C.3     1  UNL1        0.0769
     10 C          63.7681   83.7505    9.1911 C.3     1  UNL1        0.0433
     11 C          63.1161   80.9867   10.1589 C.3     1  UNL1        0.0305
     12 C          63.1973   82.1233   11.1345 C.ar    1  UNL1       -0.0260
     13 C          63.5234   83.5052   10.6506 C.ar    1  UNL1       -0.0249
     14 C          63.6046   84.6417   11.6261 C.ar    1  UNL1       -0.0043
     15 C          63.3599   84.3964   13.0855 C.ar    1  UNL1        0.0059
     16 C          63.0339   83.0146   13.5694 C.ar    1  UNL1        0.0748
     17 C          62.9526   81.8780   12.5939 C.ar    1  UNL1        0.0233
     18 C          62.6141   80.6333   13.3595 C.3     1  UNL1        0.2352
     19 O          62.4862   81.0006   14.8081 O.3     1  UNL1       -0.4404
     20 C          62.7456   82.4723   14.9379 C.2     1  UNL1        0.3413
     21 O          62.7211   83.2629   16.2124 O.2     1  UNL1       -0.2449
     22 C          61.3919   90.9052   10.9762 C.3     1  UNL1        0.1131
     23 C          62.7115   91.1464   11.6474 C.ar    1  UNL1        0.0062
     24 C          63.7891   91.9057   10.9317 C.ar    1  UNL1        0.0009
     25 C          65.1088   92.1469   11.6028 C.ar    1  UNL1        0.0386
     26 C          65.3508   91.6289   12.9896 C.ar    1  UNL1        0.1672
     27 N          64.2731   90.8696   13.7052 N.ar    1  UNL1       -0.2252
     28 C          62.9534   90.6284   13.0341 C.ar    1  UNL1        0.0968
     29 N          66.6704   91.8701   13.6607 N.ar    1  UNL1       -0.1708
     30 C          66.9136   91.9050   15.1404 C.ar    1  UNL1        0.2272
     31 N          68.3720   92.1752   15.3641 N.ar    1  UNL1       -0.1044
     32 N          69.0302   92.3073   14.0227 N.ar    1  UNL1       -0.0222
     33 N          67.9784   92.1187   12.9699 N.ar    1  UNL1       -0.0371
@<TRIPOS>BOND
     1    11    12    1
     2    12    13   ar
     3    13    10    1
     4    10     9    1
     5     9     1    1
     6     1     2    1
     7     2     3    1
     8     3     4    1
     9     4     5   am
    10     5     6    2
    11     5    22    1
    12    22    23    1
    13    23    24   ar
    14    24    25   ar
    15    25    26   ar
    16    26    29    1
    17    29    30   ar
    18    30    31   ar
    19    31    32   ar
    20    32    33   ar
    21    26    27   ar
    22    27    28   ar
    23     4     7    1
    24     7     8    1
    25    13    14   ar
    26    14    15   ar
    27    15    16   ar
    28    16    17   ar
    29    17    18    1
    30    18    19    1
    31    19    20    1
    32    20    21    2
    33    17    12   ar
    34     8     1    1
    35    20    16    1
    36    28    23   ar
    37    33    29   ar
@<TRIPOS>MOLECULE
*****
 33 37 0 0 0
SMALL
GASTEIGER

@<TRIPOS>ATOM
      1 N          63.5068   83.9481   10.9839 N.3     1  UNL1       -0.2695
      2 C          63.1041   85.0269   11.9451 C.3     1  UNL1        0.0939
      3 C          62.3367   86.2192   11.4557 C.3     1  UNL1        0.1107
      4 N          61.9720   86.3327   10.0051 N.am    1  UNL1       -0.2764
      5 C          61.2046   87.5251    9.5158 C.2     1  UNL1        0.2302
      6 O          60.8400   87.6385    8.0652 O.2     1  UNL1       -0.2745
      7 C          62.3748   85.2538    9.0439 C.3     1  UNL1        0.1107
      8 C          63.1421   84.0615    9.5334 C.3     1  UNL1        0.0939
      9 C          64.2742   82.7557   11.4732 C.3     1  UNL1        0.0769
     10 C          64.6607   82.6543   12.9190 C.3     1  UNL1        0.0433
     11 C          62.0981   82.4758   14.4688 C.3     1  UNL1        0.0305
     12 C          63.0030   83.6585   14.6494 C.ar    1  UNL1       -0.0260
     13 C          64.2843   83.7477   13.8745 C.ar    1  UNL1       -0.0249
     14 C          65.1891   84.9303   14.0551 C.ar    1  UNL1       -0.0043
     15 C          64.8128   86.0237   15.0105 C.ar    1  UNL1        0.0059
     16 C          63.5315   85.9345   15.7854 C.ar    1  UNL1        0.0748
     17 C          62.6266   84.7518   15.6048 C.ar    1  UNL1        0.0233
     18 C          61.4368   84.9377   16.4991 C.3     1  UNL1        0.2352
     19 O          61.6063   86.2353   17.2323 O.3     1  UNL1       -0.4404
     20 C          62.9009   86.8513   16.7912 C.2     1  UNL1        0.3413
     21 O          63.4658   88.1552   17.2717 O.2     1  UNL1       -0.2449
     22 C          60.8020   88.6039   10.4770 C.3     1  UNL1        0.1131
     23 C          61.8368   89.5347   11.0361 C.ar    1  UNL1        0.0062
     24 C          62.6129   90.4318   10.1179 C.ar    1  UNL1        0.0009
     25 C          63.6478   91.3627   10.6769 C.ar    1  UNL1        0.0386
     26 C          63.9066   91.3966   12.1540 C.ar    1  UNL1        0.1672
     27 N          63.1305   90.4994   13.0721 N.ar    1  UNL1       -0.2252
     28 C          62.0956   89.5686   12.5132 C.ar    1  UNL1        0.0968
     29 N          64.9415   92.3274   12.7131 N.ar    1  UNL1       -0.1708
     30 C          65.7720   93.2974   11.9262 C.ar    1  UNL1        0.2272
     31 N          66.6713   94.0211   12.8840 N.ar    1  UNL1       -0.1044
     32 N          66.3966   93.4984   14.2630 N.ar    1  UNL1       -0.0222
     33 N          65.3275   92.4516   14.1572 N.ar    1  UNL1       -0.0371
@<TRIPOS>BOND
     1    11    12    1
     2    12    13   ar
     3    13    10    1
     4    10     9    1
     5     9     1    1
     6     1     2    1
     7     2     3    1
     8     3     4    1
     9     4     5   am
    10     5     6    2
    11     5    22    1
    12    22    23    1
    13    23    24   ar
    14    24    25   ar
    15    25    26   ar
    16    26    29    1
    17    29    30   ar
    18    30    31   ar
    19    31    32   ar
    20    32    33   ar
    21    26    27   ar
    22    27    28   ar
    23     4     7    1
    24     7     8    1
    25    13    14   ar
    26    14    15   ar
    27    15    16   ar
    28    16    17   ar
    29    17    18    1
    30    18    19    1
    31    19    20    1
    32    20    21    2
    33    17    12   ar
    34     8     1    1
    35    20    16    1
    36    28    23   ar
    37    33    29   ar
@<TRIPOS>MOLECULE
*****
 33 37 0 0 0
SMALL
GASTEIGER

@<TRIPOS>ATOM
      1 N          59.2621   90.7768    5.5459 N.3     1  UNL1       -0.2695
      2 C          60.7235   90.6456    5.2341 C.3     1  UNL1        0.0939
      3 C          61.3343   91.4718    4.1412 C.3     1  UNL1        0.1107
      4 N          60.4838   92.4292    3.3602 N.am    1  UNL1       -0.2764
      5 C          61.0947   93.2554    2.2674 C.2     1  UNL1        0.2302
      6 O          60.2442   94.2128    1.4864 O.2     1  UNL1       -0.2745
      7 C          59.0224   92.5604    3.6720 C.3     1  UNL1        0.1107
      8 C          58.4116   91.7342    4.7648 C.3     1  UNL1        0.0939
      9 C          58.6512   89.9506    6.6386 C.3     1  UNL1        0.0769
     10 C          59.2613   88.6323    7.0125 C.3     1  UNL1        0.0433
     11 C          60.1819   85.9396    7.9622 C.3     1  UNL1        0.0305
     12 C          60.5717   87.1750    8.7184 C.ar    1  UNL1       -0.0260
     13 C          60.1114   88.5215    8.2436 C.ar    1  UNL1       -0.0249
     14 C          60.5010   89.7569    8.9996 C.ar    1  UNL1       -0.0043
     15 C          61.3510   89.6461   10.2306 C.ar    1  UNL1        0.0059
     16 C          61.8113   88.2997   10.7054 C.ar    1  UNL1        0.0748
     17 C          61.4216   87.0642    9.9493 C.ar    1  UNL1        0.0233
     18 C          62.0207   85.8823   10.6523 C.3     1  UNL1        0.2352
     19 O          62.7806   86.3873   11.8429 O.3     1  UNL1       -0.4404
     20 C          62.6512   87.8814   11.8757 C.2     1  UNL1        0.3413
     21 O          63.2555   88.7964   12.8992 O.2     1  UNL1       -0.2449
     22 C          62.5561   93.1242    1.9557 C.3     1  UNL1        0.1131
     23 C          63.0928   93.6311    0.6500 C.ar    1  UNL1        0.0062
     24 C          62.4521   93.2088   -0.6389 C.ar    1  UNL1        0.0009
     25 C          62.9888   93.7157   -1.9447 C.ar    1  UNL1        0.0386
     26 C          64.1662   94.6449   -1.9616 C.ar    1  UNL1        0.1672
     27 N          64.8069   95.0672   -0.6727 N.ar    1  UNL1       -0.2252
     28 C          64.2702   94.5603    0.6330 C.ar    1  UNL1        0.0968
     29 N          64.7029   95.1519   -3.2673 N.ar    1  UNL1       -0.1708
     30 C          65.3026   96.5055   -3.5082 C.ar    1  UNL1        0.2272
     31 N          65.7045   96.5843   -4.9512 N.ar    1  UNL1       -0.1044
     32 N          65.3531   95.2794   -5.6022 N.ar    1  UNL1       -0.0222
     33 N          64.7341   94.3941   -4.5615 N.ar    1  UNL1       -0.0371
@<TRIPOS>BOND
     1    11    12    1
     2    12    13   ar
     3    13    10    1
     4    10     9    1
     5     9     1    1
     6     1     2    1
     7     2     3    1
     8     3     4    1
     9     4     5   am
    10     5     6    2
    11     5    22    1
    12    22    23    1
    13    23    24   ar
    14    24    25   ar
    15    25    26   ar
    16    26    29    1
    17    29    30   ar
    18    30    31   ar
    19    31    32   ar
    20    32    33   ar
    21    26    27   ar
    22    27    28   ar
    23     4     7    1
    24     7     8    1
    25    13    14   ar
    26    14    15   ar
    27    15    16   ar
    28    16    17   ar
    29    17    18    1
    30    18    19    1
    31    19    20    1
    32    20    21    2
    33    17    12   ar
    34     8     1    1
    35    20    16    1
    36    28    23   ar
    37    33    29   ar
@<TRIPOS>MOLECULE
*****
 33 37 0 0 0
SMALL
GASTEIGER

@<TRIPOS>ATOM
      1 N          62.3289   85.9286    9.3144 N.3     1  UNL1       -0.2695
      2 C          63.0473   87.2280    9.1013 C.3     1  UNL1        0.0939
      3 C          62.5228   88.4863    9.7272 C.3     1  UNL1        0.1107
      4 N          61.2799   88.4452   10.5659 N.am    1  UNL1       -0.2764
      5 C          60.7554   89.7035   11.1917 C.2     1  UNL1        0.2302
      6 O          59.5125   89.6624   12.0304 O.2     1  UNL1       -0.2745
      7 C          60.5615   87.1457   10.7789 C.3     1  UNL1        0.1107
      8 C          61.0861   85.8875   10.1531 C.3     1  UNL1        0.0939
      9 C          62.8534   84.6703    8.6886 C.3     1  UNL1        0.0769
     10 C          63.9080   83.8669    9.3903 C.3     1  UNL1        0.0433
     11 C          63.4666   84.8238   12.1992 C.3     1  UNL1        0.0305
     12 C          63.2984   83.3708   11.8667 C.ar    1  UNL1       -0.0260
     13 C          63.5191   82.8922   10.4623 C.ar    1  UNL1       -0.0249
     14 C          63.3509   81.4394   10.1298 C.ar    1  UNL1       -0.0043
     15 C          62.9621   80.4648   11.2017 C.ar    1  UNL1        0.0059
     16 C          62.7414   80.9432   12.6061 C.ar    1  UNL1        0.0748
     17 C          62.9096   82.3962   12.9386 C.ar    1  UNL1        0.0233
     18 C          62.6268   82.5728   14.4011 C.3     1  UNL1        0.2352
     19 O          62.2839   81.2290   14.9725 O.3     1  UNL1       -0.4404
     20 C          62.3547   80.2218   13.8631 C.2     1  UNL1        0.3413
     21 O          62.0860   78.7514   13.9887 O.2     1  UNL1       -0.2449
     22 C          61.4738   91.0030   10.9786 C.3     1  UNL1        0.1131
     23 C          62.7867   91.2543   11.6591 C.ar    1  UNL1        0.0062
     24 C          63.9110   91.8997   10.9045 C.ar    1  UNL1        0.0009
     25 C          65.2241   92.1511   11.5850 C.ar    1  UNL1        0.0386
     26 C          65.4127   91.7571   13.0200 C.ar    1  UNL1        0.1672
     27 N          64.2883   91.1118   13.7745 N.ar    1  UNL1       -0.2252
     28 C          62.9753   90.8604   13.0941 C.ar    1  UNL1        0.0968
     29 N          66.7256   92.0085   13.7004 N.ar    1  UNL1       -0.1708
     30 C          66.9359   92.1764   15.1761 C.ar    1  UNL1        0.2272
     31 N          68.3990   92.4078   15.4123 N.ar    1  UNL1       -0.1044
     32 N          69.0930   92.3828   14.0827 N.ar    1  UNL1       -0.0222
     33 N          68.0586   92.1361   13.0247 N.ar    1  UNL1       -0.0371
@<TRIPOS>BOND
     1    11    12    1
     2    12    13   ar
     3    13    10    1
     4    10     9    1
     5     9     1    1
     6     1     2    1
     7     2     3    1
     8     3     4    1
     9     4     5   am
    10     5     6    2
    11     5    22    1
    12    22    23    1
    13    23    24   ar
    14    24    25   ar
    15    25    26   ar
    16    26    29    1
    17    29    30   ar
    18    30    31   ar
    19    31    32   ar
    20    32    33   ar
    21    26    27   ar
    22    27    28   ar
    23     4     7    1
    24     7     8    1
    25    13    14   ar
    26    14    15   ar
    27    15    16   ar
    28    16    17   ar
    29    17    18    1
    30    18    19    1
    31    19    20    1
    32    20    21    2
    33    17    12   ar
    34     8     1    1
    35    20    16    1
    36    28    23   ar
    37    33    29   ar
@<TRIPOS>MOLECULE
*****
 33 37 0 0 0
SMALL
GASTEIGER

@<TRIPOS>ATOM
      1 N          63.6249   86.0332   15.3002 N.3     1  UNL1       -0.2695
      2 C          63.7467   86.5933   13.9140 C.3     1  UNL1        0.0939
      3 C          63.7682   88.0785   13.7045 C.3     1  UNL1        0.1107
      4 N          63.6679   89.0035   14.8811 N.am    1  UNL1       -0.2764
      5 C          63.6894   90.4886   14.6714 C.2     1  UNL1        0.2302
      6 O          63.5890   91.4136   15.8480 O.2     1  UNL1       -0.2745
      7 C          63.5461   88.4433   16.2672 C.3     1  UNL1        0.1107
      8 C          63.5246   86.9582   16.4768 C.3     1  UNL1        0.0939
      9 C          63.6034   84.5481   15.5098 C.3     1  UNL1        0.0769
     10 C          62.3857   83.7555   15.1368 C.3     1  UNL1        0.0433
     11 C          63.1110   84.3966   12.2972 C.3     1  UNL1        0.0305
     12 C          62.8513   82.9759   12.7025 C.ar    1  UNL1       -0.0260
     13 C          62.4887   82.6553   14.1224 C.ar    1  UNL1       -0.0249
     14 C          62.2290   81.2347   14.5277 C.ar    1  UNL1       -0.0043
     15 C          62.3319   80.1346   13.5133 C.ar    1  UNL1        0.0059
     16 C          62.6945   80.4551   12.0935 C.ar    1  UNL1        0.0748
     17 C          62.9542   81.8757   11.6881 C.ar    1  UNL1        0.0233
     18 C          63.2901   81.8867   10.2263 C.3     1  UNL1        0.2352
     19 O          63.2380   80.4728    9.7281 O.3     1  UNL1       -0.4404
     20 C          62.8699   79.5880   10.8821 C.2     1  UNL1        0.3413
     21 O          62.7060   78.0978   10.8333 O.2     1  UNL1       -0.2449
     22 C          63.8112   91.0487   13.2853 C.3     1  UNL1        0.1131
     23 C          62.9328   90.5284   12.1863 C.ar    1  UNL1        0.0062
     24 C          63.4781   90.3808   10.7968 C.ar    1  UNL1        0.0009
     25 C          62.5998   89.8604    9.6977 C.ar    1  UNL1        0.0386
     26 C          61.1762   89.4877    9.9883 C.ar    1  UNL1        0.1672
     27 N          60.6310   89.6353   11.3779 N.ar    1  UNL1       -0.2252
     28 C          61.5093   90.1556   12.4769 C.ar    1  UNL1        0.0968
     29 N          60.2978   88.9673    8.8893 N.ar    1  UNL1       -0.1708
     30 C          59.6965   87.5951    8.8163 C.ar    1  UNL1        0.2272
     31 N          58.8936   87.5076    7.5523 N.ar    1  UNL1       -0.1044
     32 N          58.9987   88.8258    6.8441 N.ar    1  UNL1       -0.0222
     33 N          59.8666   89.7279    7.6705 N.ar    1  UNL1       -0.0371
@<TRIPOS>BOND
     1    11    12    1
     2    12    13   ar
     3    13    10    1
     4    10     9    1
     5     9     1    1
     6     1     2    1
     7     2     3    1
     8     3     4    1
     9     4     5   am
    10     5     6    2
    11     5    22    1
    12    22    23    1
    13    23    24   ar
    14    24    25   ar
    15    25    26   ar
    16    26    29    1
    17    29    30   ar
    18    30    31   ar
    19    31    32   ar
    20    32    33   ar
    21    26    27   ar
    22    27    28   ar
    23     4     7    1
    24     7     8    1
    25    13    14   ar
    26    14    15   ar
    27    15    16   ar
    28    16    17   ar
    29    17    18    1
    30    18    19    1
    31    19    20    1
    32    20    21    2
    33    17    12   ar
    34     8     1    1
    35    20    16    1
    36    28    23   ar
    37    33    29   ar
@<TRIPOS>MOLECULE
*****
 33 37 0 0 0
SMALL
GASTEIGER

@<TRIPOS>ATOM
      1 N          61.2491   89.0061   10.7304 N.3     1  UNL1       -0.2695
      2 C          62.6880   89.3834   10.5370 C.3     1  UNL1        0.0939
      3 C          63.4861   89.9131   11.6914 C.3     1  UNL1        0.1107
      4 N          62.8454   90.0655   13.0391 N.am    1  UNL1       -0.2764
      5 C          63.6436   90.5952   14.1933 C.2     1  UNL1        0.2302
      6 O          63.0029   90.7475   15.5411 O.2     1  UNL1       -0.2745
      7 C          61.4066   89.6881   13.2324 C.3     1  UNL1        0.1107
      8 C          60.6085   89.1584   12.0781 C.3     1  UNL1        0.0939
      9 C          60.4510   88.4764    9.5762 C.3     1  UNL1        0.0769
     10 C          60.4277   87.0034    9.2935 C.3     1  UNL1        0.0433
     11 C          62.3639   85.2936    7.7678 C.3     1  UNL1        0.0305
     12 C          62.3253   85.2290    9.2659 C.ar    1  UNL1       -0.0260
     13 C          61.3572   86.0839   10.0289 C.ar    1  UNL1       -0.0249
     14 C          61.3185   86.0192   11.5269 C.ar    1  UNL1       -0.0043
     15 C          62.2480   85.0997   12.2622 C.ar    1  UNL1        0.0059
     16 C          63.2160   84.2448   11.4993 C.ar    1  UNL1        0.0748
     17 C          63.2547   84.3094   10.0012 C.ar    1  UNL1        0.0233
     18 C          64.3086   83.3551    9.5231 C.3     1  UNL1        0.2352
     19 O          64.9212   82.7007   10.7257 O.3     1  UNL1       -0.4404
     20 C          64.2460   83.2505   11.9471 C.2     1  UNL1        0.3413
     21 O          64.5478   82.8725   13.3670 O.2     1  UNL1       -0.2449
     22 C          65.0824   90.9725   13.9999 C.3     1  UNL1        0.1131
     23 C          65.4585   91.9864   12.9605 C.ar    1  UNL1        0.0062
     24 C          65.0030   91.8108   11.5421 C.ar    1  UNL1        0.0009
     25 C          65.3791   92.8247   10.5026 C.ar    1  UNL1        0.0386
     26 C          66.2107   94.0142   10.8813 C.ar    1  UNL1        0.1672
     27 N          66.6663   94.1897   12.2997 N.ar    1  UNL1       -0.2252
     28 C          66.2902   93.1759   13.3393 C.ar    1  UNL1        0.0968
     29 N          66.5869   95.0281    9.8419 N.ar    1  UNL1       -0.1708
     30 C          65.6722   96.0512    9.2365 C.ar    1  UNL1        0.2272
     31 N          66.4638   96.8523    8.2458 N.ar    1  UNL1       -0.1044
     32 N          67.8679   96.3243    8.2389 N.ar    1  UNL1       -0.0222
     33 N          67.9438   95.1969    9.2254 N.ar    1  UNL1       -0.0371
@<TRIPOS>BOND
     1    11    12    1
     2    12    13   ar
     3    13    10    1
     4    10     9    1
     5     9     1    1
     6     1     2    1
     7     2     3    1
     8     3     4    1
     9     4     5   am
    10     5     6    2
    11     5    22    1
    12    22    23    1
    13    23    24   ar
    14    24    25   ar
    15    25    26   ar
    16    26    29    1
    17    29    30   ar
    18    30    31   ar
    19    31    32   ar
    20    32    33   ar
    21    26    27   ar
    22    27    28   ar
    23     4     7    1
    24     7     8    1
    25    13    14   ar
    26    14    15   ar
    27    15    16   ar
    28    16    17   ar
    29    17    18    1
    30    18    19    1
    31    19    20    1
    32    20    21    2
    33    17    12   ar
    34     8     1    1
    35    20    16    1
    36    28    23   ar
    37    33    29   ar
