@<TRIPOS>MOLECULE
*****
 16 18 0 0 0
SMALL
GASTEIGER

@<TRIPOS>ATOM
      1 C          62.2032   90.0094    9.8049 C.3     1  UNL1        0.0061
      2 C          63.0169   90.2958   11.0321 C.3     1  UNL1        0.0383
      3 C          62.3449   89.0685   11.5724 C.3     1  UNL1        0.0061
      4 C          63.5188   91.4634   10.2352 C.3     1  UNL1        0.0948
      5 N          64.5022   92.2146   11.0829 N.pl3   1  UNL1       -0.3062
      6 C          65.2177   93.4493   10.6206 C.3     1  UNL1        0.1078
      7 C          66.2158   94.2858   11.3651 C.3     1  UNL1        0.0905
      8 N          66.7448   94.0941   12.7555 N.3     1  UNL1       -0.2923
      9 C          66.4065   93.0187   13.7450 C.3     1  UNL1        0.0969
     10 C          65.4556   91.8693   13.5883 C.ar    1  UNL1        0.0067
     11 C          65.3520   90.9701   14.7852 C.ar    1  UNL1       -0.0017
     12 C          64.4467   89.7741   14.7957 C.ar    1  UNL1       -0.0005
     13 C          63.6158   89.4519   13.5892 C.ar    1  UNL1       -0.0030
     14 C          63.6901   90.3256   12.3722 C.ar    1  UNL1       -0.0081
     15 C          64.6081   91.5115   12.4035 C.ar    1  UNL1        0.0411
     16 H          66.5191   94.9645   13.2370 H       1  UNL1        0.1236
@<TRIPOS>BOND
     1     1     2    1
     2     2     3    1
     3     2     4    1
     4     4     5    1
     5     5     6    1
     6     6     7    1
     7     7     8    1
     8     8     9    1
     9     9    10    1
    10    10    11   ar
    11    11    12   ar
    12    12    13   ar
    13    13    14   ar
    14    14    15   ar
    15    14     2    1
    16    15     5    1
    17    15    10   ar
    18     8    16    1
@<TRIPOS>MOLECULE
*****
 16 18 0 0 0
SMALL
GASTEIGER

@<TRIPOS>ATOM
      1 C          60.2453   86.3778    8.4976 C.3     1  UNL1        0.0061
      2 C          60.9910   87.2789    9.4369 C.3     1  UNL1        0.0383
      3 C          60.4951   88.3693    8.5340 C.3     1  UNL1        0.0061
      4 C          61.3310   86.0002   10.1434 C.3     1  UNL1        0.0948
      5 N          62.1831   86.3390   11.3305 N.pl3   1  UNL1       -0.3062
      6 C          62.7198   85.3115   12.2826 C.3     1  UNL1        0.1078
      7 C          63.5757   85.5186   13.4969 C.3     1  UNL1        0.0905
      8 N          64.1062   86.8040   14.0590 N.3     1  UNL1       -0.2923
      9 C          63.9119   88.2000   13.5458 C.3     1  UNL1        0.0969
     10 C          63.1391   88.6553   12.3435 C.ar    1  UNL1        0.0067
     11 C          63.1486   90.1381   12.1133 C.ar    1  UNL1       -0.0017
     12 C          62.4252   90.7600   10.9556 C.ar    1  UNL1       -0.0005
     13 C          61.6674   89.8949    9.9927 C.ar    1  UNL1       -0.0030
     14 C          61.6329   88.4080   10.1873 C.ar    1  UNL1       -0.0081
     15 C          62.3697   87.8270   11.3576 C.ar    1  UNL1        0.0411
     16 H          65.1181   86.6768   14.0767 H       1  UNL1        0.1236
@<TRIPOS>BOND
     1     1     2    1
     2     2     3    1
     3     2     4    1
     4     4     5    1
     5     5     6    1
     6     6     7    1
     7     7     8    1
     8     8     9    1
     9     9    10    1
    10    10    11   ar
    11    11    12   ar
    12    12    13   ar
    13    13    14   ar
    14    14    15   ar
    15    14     2    1
    16    15     5    1
    17    15    10   ar
    18     8    16    1
@<TRIPOS>MOLECULE
*****
 16 18 0 0 0
SMALL
GASTEIGER

@<TRIPOS>ATOM
      1 C          64.4827   89.5277   14.4507 C.3     1  UNL1        0.0061
      2 C          63.8782   88.4677   13.5783 C.3     1  UNL1        0.0383
      3 C          63.4773   89.6278   12.7161 C.3     1  UNL1        0.0061
      4 C          64.4055   87.5291   14.6229 C.3     1  UNL1        0.0948
      5 N          64.0430   86.1317   14.2157 N.pl3   1  UNL1       -0.3062
      6 C          64.4044   84.9171   15.0185 C.3     1  UNL1        0.1078
      7 C          64.1037   83.4775   14.7233 C.3     1  UNL1        0.0905
      8 N          63.3674   82.8969   13.5526 N.3     1  UNL1       -0.2923
      9 C          62.7499   83.6124   12.3878 C.3     1  UNL1        0.0969
     10 C          62.7163   85.0854   12.1061 C.ar    1  UNL1        0.0067
     11 C          62.0094   85.4682   10.8390 C.ar    1  UNL1       -0.0017
     12 C          61.8849   86.8996   10.4082 C.ar    1  UNL1       -0.0005
     13 C          62.4751   87.9906   11.2516 C.ar    1  UNL1       -0.0030
     14 C          63.1899   87.6503   12.5257 C.ar    1  UNL1       -0.0081
     15 C          63.2918   86.2065   12.9197 C.ar    1  UNL1        0.0411
     16 H          62.5968   82.3743   13.9691 H       1  UNL1        0.1236
@<TRIPOS>BOND
     1     1     2    1
     2     2     3    1
     3     2     4    1
     4     4     5    1
     5     5     6    1
     6     6     7    1
     7     7     8    1
     8     8     9    1
     9     9    10    1
    10    10    11   ar
    11    11    12   ar
    12    12    13   ar
    13    13    14   ar
    14    14    15   ar
    15    14     2    1
    16    15     5    1
    17    15    10   ar
    18     8    16    1
@<TRIPOS>MOLECULE
*****
 16 18 0 0 0
SMALL
GASTEIGER

@<TRIPOS>ATOM
      1 C          63.0368   91.1378   11.4732 C.3     1  UNL1        0.0061
      2 C          62.8120   89.6582   11.3709 C.3     1  UNL1        0.0383
      3 C          62.1322   90.0097   10.0808 C.3     1  UNL1        0.0061
      4 C          63.5388   89.6160   12.6824 C.3     1  UNL1        0.0948
      5 N          63.6209   88.1839   13.1208 N.pl3   1  UNL1       -0.3062
      6 C          64.2817   87.7463   14.3944 C.3     1  UNL1        0.1078
      7 C          64.4297   86.3576   14.9420 C.3     1  UNL1        0.0905
      8 N          63.9534   85.0638   14.3514 N.3     1  UNL1       -0.2923
      9 C          63.2116   84.8388   13.0672 C.3     1  UNL1        0.0969
     10 C          62.7628   85.8523   12.0565 C.ar    1  UNL1        0.0067
     11 C          62.0378   85.2826   10.8726 C.ar    1  UNL1       -0.0017
     12 C          61.5216   86.1580    9.7693 C.ar    1  UNL1       -0.0005
     13 C          61.7252   87.6428    9.8324 C.ar    1  UNL1       -0.0030
     14 C          62.4450   88.2522   10.9989 C.ar    1  UNL1       -0.0081
     15 C          62.9450   87.3410   12.0805 C.ar    1  UNL1        0.0411
     16 H          63.3498   84.6622   15.0688 H       1  UNL1        0.1236
@<TRIPOS>BOND
     1     1     2    1
     2     2     3    1
     3     2     4    1
     4     4     5    1
     5     5     6    1
     6     6     7    1
     7     7     8    1
     8     8     9    1
     9     9    10    1
    10    10    11   ar
    11    11    12   ar
    12    12    13   ar
    13    13    14   ar
    14    14    15   ar
    15    14     2    1
    16    15     5    1
    17    15    10   ar
    18     8    16    1
@<TRIPOS>MOLECULE
*****
 16 18 0 0 0
SMALL
GASTEIGER

@<TRIPOS>ATOM
      1 C          61.5467   89.3890    9.5063 C.3     1  UNL1        0.0061
      2 C          62.3215   89.3310   10.7895 C.3     1  UNL1        0.0383
      3 C          62.3924   90.8209   10.6306 C.3     1  UNL1        0.0061
      4 C          62.0886   87.8533   10.6801 C.3     1  UNL1        0.0948
      5 N          62.7342   87.1936   11.8624 N.pl3   1  UNL1       -0.3062
      6 C          62.7104   85.7122   12.0971 C.3     1  UNL1        0.1078
      7 C          63.3128   84.9350   13.2300 C.3     1  UNL1        0.0905
      8 N          64.0875   85.4472   14.4077 N.3     1  UNL1       -0.2923
      9 C          64.4514   86.8631   14.7437 C.3     1  UNL1        0.0969
     10 C          64.1304   88.1165   13.9848 C.ar    1  UNL1        0.0067
     11 C          64.6508   89.3795   14.6060 C.ar    1  UNL1       -0.0017
     12 C          64.4181   90.7208   13.9760 C.ar    1  UNL1       -0.0005
     13 C          63.6483   90.8233   12.6927 C.ar    1  UNL1       -0.0030
     14 C          63.1111   89.5846   12.0394 C.ar    1  UNL1       -0.0081
     15 C          63.3661   88.2635   12.7025 C.ar    1  UNL1        0.0411
     16 H          64.9815   84.9587   14.3575 H       1  UNL1        0.1236
@<TRIPOS>BOND
     1     1     2    1
     2     2     3    1
     3     2     4    1
     4     4     5    1
     5     5     6    1
     6     6     7    1
     7     7     8    1
     8     8     9    1
     9     9    10    1
    10    10    11   ar
    11    11    12   ar
    12    12    13   ar
    13    13    14   ar
    14    14    15   ar
    15    14     2    1
    16    15     5    1
    17    15    10   ar
    18     8    16    1
@<TRIPOS>MOLECULE
*****
 16 18 0 0 0
SMALL
GASTEIGER

@<TRIPOS>ATOM
      1 C          62.1590   89.4635   11.8207 C.3     1  UNL1        0.0061
      2 C          63.2260   90.5172   11.8564 C.3     1  UNL1        0.0383
      3 C          63.0352   90.5378   10.3688 C.3     1  UNL1        0.0061
      4 C          63.1938   90.2764   13.3366 C.3     1  UNL1        0.0948
      5 N          64.2010   91.1856   13.9761 N.pl3   1  UNL1       -0.3062
      6 C          64.4545   91.2285   15.4540 C.3     1  UNL1        0.1078
      7 C          65.4254   92.0849   16.2118 C.3     1  UNL1        0.0905
      8 N          66.3823   93.1096   15.6790 N.3     1  UNL1       -0.2923
      9 C          66.6050   93.5312   14.2568 C.3     1  UNL1        0.0969
     10 C          65.9256   93.0322   13.0161 C.ar    1  UNL1        0.0067
     11 C          66.3910   93.6737   11.7419 C.ar    1  UNL1       -0.0017
     12 C          65.8151   93.2901   10.4110 C.ar    1  UNL1       -0.0005
     13 C          64.7462   92.2409   10.3306 C.ar    1  UNL1       -0.0030
     14 C          64.2531   91.5752   11.5811 C.ar    1  UNL1       -0.0081
     15 C          64.8557   91.9882   12.8913 C.ar    1  UNL1        0.0411
     16 H          67.2983   92.7942   15.9984 H       1  UNL1        0.1236
@<TRIPOS>BOND
     1     1     2    1
     2     2     3    1
     3     2     4    1
     4     4     5    1
     5     5     6    1
     6     6     7    1
     7     7     8    1
     8     8     9    1
     9     9    10    1
    10    10    11   ar
    11    11    12   ar
    12    12    13   ar
    13    13    14   ar
    14    14    15   ar
    15    14     2    1
    16    15     5    1
    17    15    10   ar
    18     8    16    1
@<TRIPOS>MOLECULE
*****
 16 18 0 0 0
SMALL
GASTEIGER

@<TRIPOS>ATOM
      1 C          63.9424   91.2598   13.0791 C.3     1  UNL1        0.0061
      2 C          63.8236   89.7665   13.1562 C.3     1  UNL1        0.0383
      3 C          64.6032   89.9277   14.4275 C.3     1  UNL1        0.0061
      4 C          63.0688   89.9175   11.8688 C.3     1  UNL1        0.0948
      5 N          62.6465   88.5512   11.4162 N.pl3   1  UNL1       -0.3062
      6 C          61.8660   88.3016   10.1597 C.3     1  UNL1        0.1078
      7 C          61.3865   86.9947    9.6007 C.3     1  UNL1        0.0905
      8 N          61.5691   85.6150   10.1600 N.3     1  UNL1       -0.2923
      9 C          62.2763   85.2011   11.4164 C.3     1  UNL1        0.0969
     10 C          62.9755   86.0649   12.4239 C.ar    1  UNL1        0.0067
     11 C          63.5840   85.3213   13.5766 C.ar    1  UNL1       -0.0017
     12 C          64.3197   86.0335   14.6729 C.ar    1  UNL1       -0.0005
     13 C          64.4615   87.5263   14.6341 C.ar    1  UNL1       -0.0030
     14 C          63.8678   88.3069   13.4992 C.ar    1  UNL1       -0.0081
     15 C          63.1402   87.5558   12.4237 C.ar    1  UNL1        0.0411
     16 H          62.0430   85.0994    9.4184 H       1  UNL1        0.1236
@<TRIPOS>BOND
     1     1     2    1
     2     2     3    1
     3     2     4    1
     4     4     5    1
     5     5     6    1
     6     6     7    1
     7     7     8    1
     8     8     9    1
     9     9    10    1
    10    10    11   ar
    11    11    12   ar
    12    12    13   ar
    13    13    14   ar
    14    14    15   ar
    15    14     2    1
    16    15     5    1
    17    15    10   ar
    18     8    16    1
@<TRIPOS>MOLECULE
*****
 16 18 0 0 0
SMALL
GASTEIGER

@<TRIPOS>ATOM
      1 C          61.4991   86.1784    9.8090 C.3     1  UNL1        0.0061
      2 C          62.2604   86.4881   11.0639 C.3     1  UNL1        0.0383
      3 C          62.2144   85.0032   11.2708 C.3     1  UNL1        0.0061
      4 C          62.1472   87.9083   10.5947 C.3     1  UNL1        0.0948
      5 N          62.8290   88.7852   11.6028 N.pl3   1  UNL1       -0.3062
      6 C          62.9203   90.2769   11.4729 C.3     1  UNL1        0.1078
      7 C          63.5688   91.2586   12.4034 C.3     1  UNL1        0.0905
      8 N          64.2860   90.9912   13.6933 N.3     1  UNL1       -0.2923
      9 C          64.5320   89.6761   14.3715 C.3     1  UNL1        0.0969
     10 C          64.1214   88.3035   13.9272 C.ar    1  UNL1        0.0067
     11 C          64.5320   87.1937   14.8501 C.ar    1  UNL1       -0.0017
     12 C          64.2010   85.7608   14.5548 C.ar    1  UNL1       -0.0005
     13 C          63.4410   85.4076   13.3108 C.ar    1  UNL1       -0.0030
     14 C          63.0121   86.4873   12.3620 C.ar    1  UNL1       -0.0081
     15 C          63.3635   87.9071   12.6950 C.ar    1  UNL1        0.0411
     16 H          63.7819   91.5453   14.3856 H       1  UNL1        0.1236
@<TRIPOS>BOND
     1     1     2    1
     2     2     3    1
     3     2     4    1
     4     4     5    1
     5     5     6    1
     6     6     7    1
     7     7     8    1
     8     8     9    1
     9     9    10    1
    10    10    11   ar
    11    11    12   ar
    12    12    13   ar
    13    13    14   ar
    14    14    15   ar
    15    14     2    1
    16    15     5    1
    17    15    10   ar
    18     8    16    1
@<TRIPOS>MOLECULE
*****
 16 18 0 0 0
SMALL
GASTEIGER

@<TRIPOS>ATOM
      1 C          62.9395   84.1455   12.4355 C.3     1  UNL1        0.0061
      2 C          63.1341   85.6178   12.6469 C.3     1  UNL1        0.0383
      3 C          63.8986   85.1826   13.8618 C.3     1  UNL1        0.0061
      4 C          62.3290   85.7453   11.3877 C.3     1  UNL1        0.0948
      5 N          62.1859   87.2053   11.0749 N.pl3   1  UNL1       -0.3062
      6 C          61.4393   87.7255    9.8824 C.3     1  UNL1        0.1078
      7 C          61.2250   89.1492    9.4613 C.3     1  UNL1        0.0905
      8 N          61.7044   90.4041   10.1285 N.3     1  UNL1       -0.2923
      9 C          62.5164   90.5454   11.3818 C.3     1  UNL1        0.0969
     10 C          63.0497   89.4666   12.2773 C.ar    1  UNL1        0.0067
     11 C          63.8305   89.9591   13.4603 C.ar    1  UNL1       -0.0017
     12 C          64.4332   89.0123   14.4555 C.ar    1  UNL1       -0.0005
     13 C          64.2622   87.5323   14.2815 C.ar    1  UNL1       -0.0030
     14 C          63.4886   86.9990   13.1122 C.ar    1  UNL1       -0.0081
     15 C          62.9025   87.9801   12.1406 C.ar    1  UNL1        0.0411
     16 H          60.8539   90.9358   10.3138 H       1  UNL1        0.1236
@<TRIPOS>BOND
     1     1     2    1
     2     2     3    1
     3     2     4    1
     4     4     5    1
     5     5     6    1
     6     6     7    1
     7     7     8    1
     8     8     9    1
     9     9    10    1
    10    10    11   ar
    11    11    12   ar
    12    12    13   ar
    13    13    14   ar
    14    14    15   ar
    15    14     2    1
    16    15     5    1
    17    15    10   ar
    18     8    16    1
