@<TRIPOS>MOLECULE
*****
 29 33 0 0 0
SMALL
GASTEIGER

@<TRIPOS>ATOM
      1 C          65.3634   91.0354   14.9526 C.3     1  UNL1        0.0534
      2 C          64.6369   90.0214   14.1194 C.ar    1  UNL1        0.0730
      3 N          64.5313   88.5537   14.4103 N.ar    1  UNL1       -0.2299
      4 C          63.7175   87.9224   13.3197 C.ar    1  UNL1        0.1604
      5 C          63.2870   86.5056   13.0806 C.ar    1  UNL1        0.0813
      6 C          62.4590   86.1663   11.8767 C.ar    1  UNL1        0.0365
      7 C          62.0616   87.2439   10.9119 C.ar    1  UNL1        0.0857
      8 C          62.4922   88.6608   11.1510 C.ar    1  UNL1        0.0989
      9 N          63.3201   89.0000   12.3549 N.ar    1  UNL1       -0.2906
     10 C          63.8883   90.2973   12.8492 C.ar    1  UNL1        0.0567
     11 C          63.7348   91.6354   12.1890 C.3     1  UNL1        0.0517
     12 N          61.2337   86.9047    9.7079 N.ar    1  UNL1       -0.2716
     13 C          59.8504   87.4673    9.5662 C.ar    1  UNL1        0.0830
     14 C          59.0225   87.1281    8.3624 C.ar    1  UNL1        0.0192
     15 C          59.5778   86.2262    7.3001 C.ar    1  UNL1        0.0064
     16 C          60.9610   85.6636    7.4417 C.ar    1  UNL1        0.0611
     17 C          61.7890   86.0029    8.6457 C.ar    1  UNL1        0.2649
     18 O          63.1722   85.4402    8.7874 O.2     1  UNL1       -0.2666
     19 N          63.6844   85.4280   14.0454 N.pl3   1  UNL1       -0.3282
     20 H          64.2986   85.6332   14.7869 H       1  UNL1        0.1471
     21 C          63.1460   84.0377   13.8804 C.3     1  UNL1        0.0920
     22 C          62.3284   83.2836   14.8868 C.3     1  UNL1        0.0287
     23 C          62.0077   81.9372   14.3085 C.3     1  UNL1        0.0281
     24 C          62.6271   81.8592   12.9445 C.ar    1  UNL1       -0.0245
     25 C          62.6415   80.7739   11.9093 C.ar    1  UNL1       -0.0045
     26 C          63.3593   80.9866   10.6095 C.ar    1  UNL1       -0.0003
     27 C          64.0628   82.2848   10.3450 C.ar    1  UNL1       -0.0003
     28 C          64.0484   83.3702   11.3802 C.ar    1  UNL1       -0.0030
     29 C          63.3306   83.1574   12.6800 C.ar    1  UNL1       -0.0085
@<TRIPOS>BOND
     1     1     2    1
     2     2     3   ar
     3     3     4   ar
     4     4     5   ar
     5     5    19    1
     6    21    19    1
     7    21    22    1
     8    22    23    1
     9    23    24    1
    10    24    25   ar
    11    25    26   ar
    12    26    27   ar
    13    27    28   ar
    14    28    29   ar
    15     5     6   ar
    16     6     7   ar
    17     7    12    1
    18    12    13   ar
    19    13    14   ar
    20    14    15   ar
    21    15    16   ar
    22    16    17   ar
    23    17    18    2
    24     7     8   ar
    25     8     9   ar
    26     9    10   ar
    27    10    11    1
    28    10     2   ar
    29     9     4   ar
    30    29    21    1
    31    17    12   ar
    32    29    24   ar
    33    19    20    1
@<TRIPOS>MOLECULE
*****
 29 33 0 0 0
SMALL
GASTEIGER

@<TRIPOS>ATOM
      1 C          59.1974   89.1560    7.0609 C.3     1  UNL1        0.0534
      2 C          59.9554   88.5132    8.1844 C.ar    1  UNL1        0.0730
      3 N          60.5095   89.2146    9.3890 N.ar    1  UNL1       -0.2299
      4 C          61.1890   88.1909   10.2496 C.ar    1  UNL1        0.1604
      5 C          61.9126   88.3012   11.5589 C.ar    1  UNL1        0.0813
      6 C          62.5019   87.0776   12.1956 C.ar    1  UNL1        0.0365
      7 C          62.3676   85.7437   11.5229 C.ar    1  UNL1        0.0857
      8 C          61.6441   85.6334   10.2136 C.ar    1  UNL1        0.0989
      9 N          61.0547   86.8570    9.5770 N.ar    1  UNL1       -0.2906
     10 C          60.2923   87.0562    8.3006 C.ar    1  UNL1        0.0567
     11 C          59.9304   85.9861    7.3137 C.3     1  UNL1        0.0517
     12 N          62.9570   84.5199   12.1595 N.ar    1  UNL1       -0.2716
     13 C          62.7692   84.2737   13.6272 C.ar    1  UNL1        0.0830
     14 C          63.3584   83.0500   14.2639 C.ar    1  UNL1        0.0192
     15 C          64.1356   82.0725   13.4328 C.ar    1  UNL1        0.0064
     16 C          64.3234   82.3187   11.9651 C.ar    1  UNL1        0.0611
     17 C          63.7341   83.5425   11.3285 C.ar    1  UNL1        0.2649
     18 O          63.9219   83.7887    9.8608 O.2     1  UNL1       -0.2666
     19 N          62.0468   89.6353   12.2316 N.pl3   1  UNL1       -0.3282
     20 H          61.4156   89.8944   12.9413 H       1  UNL1        0.1471
     21 C          63.1427   90.5744   11.8229 C.3     1  UNL1        0.0920
     22 C          63.2835   91.2356   10.4839 C.3     1  UNL1        0.0287
     23 C          64.5180   92.0871   10.5148 C.3     1  UNL1        0.0281
     24 C          65.1403   91.9521   11.8730 C.ar    1  UNL1       -0.0245
     25 C          66.3710   92.5596   12.4780 C.ar    1  UNL1       -0.0045
     26 C          66.7518   92.2323   13.8915 C.ar    1  UNL1       -0.0003
     27 C          65.9018   91.2974   14.6999 C.ar    1  UNL1       -0.0003
     28 C          64.6710   90.6898   14.0948 C.ar    1  UNL1       -0.0030
     29 C          64.2903   91.0172   12.6814 C.ar    1  UNL1       -0.0085
@<TRIPOS>BOND
     1     1     2    1
     2     2     3   ar
     3     3     4   ar
     4     4     5   ar
     5     5    19    1
     6    21    19    1
     7    21    22    1
     8    22    23    1
     9    23    24    1
    10    24    25   ar
    11    25    26   ar
    12    26    27   ar
    13    27    28   ar
    14    28    29   ar
    15     5     6   ar
    16     6     7   ar
    17     7    12    1
    18    12    13   ar
    19    13    14   ar
    20    14    15   ar
    21    15    16   ar
    22    16    17   ar
    23    17    18    2
    24     7     8   ar
    25     8     9   ar
    26     9    10   ar
    27    10    11    1
    28    10     2   ar
    29     9     4   ar
    30    29    21    1
    31    17    12   ar
    32    29    24   ar
    33    19    20    1
@<TRIPOS>MOLECULE
*****
 29 33 0 0 0
SMALL
GASTEIGER

@<TRIPOS>ATOM
      1 C          58.9957   89.1032    6.8282 C.3     1  UNL1        0.0534
      2 C          59.8260   88.6699    8.0000 C.ar    1  UNL1        0.0730
      3 N          60.4160   89.5710    9.0439 N.ar    1  UNL1       -0.2299
      4 C          61.1667   88.7173   10.0226 C.ar    1  UNL1        0.1604
      5 C          61.9487   89.0564   11.2569 C.ar    1  UNL1        0.0813
      6 C          62.6047   87.9668   12.0521 C.ar    1  UNL1        0.0365
      7 C          62.4787   86.5381   11.6130 C.ar    1  UNL1        0.0857
      8 C          61.6966   86.1990   10.3787 C.ar    1  UNL1        0.0989
      9 N          61.0406   87.2886    9.5835 N.ar    1  UNL1       -0.2906
     10 C          60.2121   87.2593    8.3335 C.ar    1  UNL1        0.0567
     11 C          59.8356   86.0343    7.5538 C.3     1  UNL1        0.0517
     12 N          63.1347   85.4484   12.4082 N.ar    1  UNL1       -0.2716
     13 C          63.1189   84.0367   11.9014 C.ar    1  UNL1        0.0830
     14 C          63.7748   82.9470   12.6965 C.ar    1  UNL1        0.0192
     15 C          64.4466   83.2690   13.9985 C.ar    1  UNL1        0.0064
     16 C          64.4624   84.6807   14.5053 C.ar    1  UNL1        0.0611
     17 C          63.8064   85.7704   13.7101 C.ar    1  UNL1        0.2649
     18 O          63.8222   87.1821   14.2169 O.2     1  UNL1       -0.2666
     19 N          62.0748   90.4852   11.6959 N.pl3   1  UNL1       -0.3282
     20 H          61.2939   90.9573   12.0656 H       1  UNL1        0.1471
     21 C          63.3905   91.1947   11.5717 C.3     1  UNL1        0.0920
     22 C          63.8718   91.9564   10.3725 C.3     1  UNL1        0.0287
     23 C          65.2348   92.4995   10.6846 C.3     1  UNL1        0.0281
     24 C          65.5959   92.0734   12.0767 C.ar    1  UNL1       -0.0245
     25 C          66.8153   92.3156   12.9160 C.ar    1  UNL1       -0.0045
     26 C          66.8949   91.7513   14.3035 C.ar    1  UNL1       -0.0003
     27 C          65.7552   90.9449   14.8518 C.ar    1  UNL1       -0.0003
     28 C          64.5357   90.7028   14.0125 C.ar    1  UNL1       -0.0030
     29 C          64.4561   91.2670   12.6250 C.ar    1  UNL1       -0.0085
@<TRIPOS>BOND
     1     1     2    1
     2     2     3   ar
     3     3     4   ar
     4     4     5   ar
     5     5    19    1
     6    21    19    1
     7    21    22    1
     8    22    23    1
     9    23    24    1
    10    24    25   ar
    11    25    26   ar
    12    26    27   ar
    13    27    28   ar
    14    28    29   ar
    15     5     6   ar
    16     6     7   ar
    17     7    12    1
    18    12    13   ar
    19    13    14   ar
    20    14    15   ar
    21    15    16   ar
    22    16    17   ar
    23    17    18    2
    24     7     8   ar
    25     8     9   ar
    26     9    10   ar
    27    10    11    1
    28    10     2   ar
    29     9     4   ar
    30    29    21    1
    31    17    12   ar
    32    29    24   ar
    33    19    20    1
@<TRIPOS>MOLECULE
*****
 29 33 0 0 0
SMALL
GASTEIGER

@<TRIPOS>ATOM
      1 C          59.0130   89.1208    6.8795 C.3     1  UNL1        0.0534
      2 C          59.8146   88.6026    8.0366 C.ar    1  UNL1        0.0730
      3 N          60.3816   89.4255    9.1553 N.ar    1  UNL1       -0.2299
      4 C          61.1074   88.5019   10.0882 C.ar    1  UNL1        0.1604
      5 C          61.8608   88.7499   11.3614 C.ar    1  UNL1        0.0813
      6 C          62.4958   87.6044   12.0924 C.ar    1  UNL1        0.0365
      7 C          62.3774   86.2108   11.5503 C.ar    1  UNL1        0.0857
      8 C          61.6240   85.9628   10.2772 C.ar    1  UNL1        0.0989
      9 N          60.9890   87.1084    9.5461 N.ar    1  UNL1       -0.2906
     10 C          60.1900   87.1706    8.2782 C.ar    1  UNL1        0.0567
     11 C          59.8298   86.0053    7.4050 C.3     1  UNL1        0.0517
     12 N          63.0125   85.0652   12.2813 N.ar    1  UNL1       -0.2716
     13 C          62.8988   83.6724   11.7362 C.ar    1  UNL1        0.0830
     14 C          63.5338   82.5268   12.4671 C.ar    1  UNL1        0.0192
     15 C          64.2825   82.7740   13.7433 C.ar    1  UNL1        0.0064
     16 C          64.3962   84.1668   14.2884 C.ar    1  UNL1        0.0611
     17 C          63.7611   85.3124   13.5574 C.ar    1  UNL1        0.2649
     18 O          63.8748   86.7053   14.1025 O.2     1  UNL1       -0.2666
     19 N          61.9792   90.1436   11.9035 N.pl3   1  UNL1       -0.3282
     20 H          61.2604   90.7970   11.7429 H       1  UNL1        0.1471
     21 C          63.1926   90.5417   12.6903 C.3     1  UNL1        0.0920
     22 C          63.4810   90.1700   14.1146 C.3     1  UNL1        0.0287
     23 C          64.7973   90.7800   14.4955 C.3     1  UNL1        0.0281
     24 C          65.3225   91.5288   13.3066 C.ar    1  UNL1       -0.0245
     25 C          66.5757   92.3256   13.0958 C.ar    1  UNL1       -0.0045
     26 C          66.8372   92.9753   11.7693 C.ar    1  UNL1       -0.0003
     27 C          65.8454   92.8280   10.6536 C.ar    1  UNL1       -0.0003
     28 C          64.5922   92.0311   10.8644 C.ar    1  UNL1       -0.0030
     29 C          64.3308   91.3815   12.1909 C.ar    1  UNL1       -0.0085
@<TRIPOS>BOND
     1     1     2    1
     2     2     3   ar
     3     3     4   ar
     4     4     5   ar
     5     5    19    1
     6    21    19    1
     7    21    22    1
     8    22    23    1
     9    23    24    1
    10    24    25   ar
    11    25    26   ar
    12    26    27   ar
    13    27    28   ar
    14    28    29   ar
    15     5     6   ar
    16     6     7   ar
    17     7    12    1
    18    12    13   ar
    19    13    14   ar
    20    14    15   ar
    21    15    16   ar
    22    16    17   ar
    23    17    18    2
    24     7     8   ar
    25     8     9   ar
    26     9    10   ar
    27    10    11    1
    28    10     2   ar
    29     9     4   ar
    30    29    21    1
    31    17    12   ar
    32    29    24   ar
    33    19    20    1
@<TRIPOS>MOLECULE
*****
 29 33 0 0 0
SMALL
GASTEIGER

@<TRIPOS>ATOM
      1 C          66.3392   94.5324   11.1625 C.3     1  UNL1        0.0534
      2 C          65.6819   93.3011   11.7119 C.ar    1  UNL1        0.0730
      3 N          64.6915   92.4345   10.9920 N.ar    1  UNL1       -0.2299
      4 C          64.2971   91.3180   11.9128 C.ar    1  UNL1        0.1604
      5 C          63.3546   90.1634   11.7441 C.ar    1  UNL1        0.0813
      6 C          63.1586   89.1852   12.8643 C.ar    1  UNL1        0.0365
      7 C          63.9052   89.3618   14.1532 C.ar    1  UNL1        0.0857
      8 C          64.8478   90.5164   14.3219 C.ar    1  UNL1        0.0989
      9 N          65.0437   91.4945   13.2017 N.ar    1  UNL1       -0.2906
     10 C          65.8996   92.7201   13.0776 C.ar    1  UNL1        0.0567
     11 C          66.8127   93.2684   14.1337 C.3     1  UNL1        0.0517
     12 N          63.7093   88.3836   15.2735 N.ar    1  UNL1       -0.2716
     13 C          64.0746   86.9414   15.0823 C.ar    1  UNL1        0.0830
     14 C          63.8787   85.9633   16.2025 C.ar    1  UNL1        0.0192
     15 C          63.3175   86.4274   17.5139 C.ar    1  UNL1        0.0064
     16 C          62.9522   87.8696   17.7051 C.ar    1  UNL1        0.0611
     17 C          63.1481   88.8477   16.5848 C.ar    1  UNL1        0.2649
     18 O          62.7828   90.2900   16.7759 O.2     1  UNL1       -0.2666
     19 N          62.6079   89.9869   10.4551 N.pl3   1  UNL1       -0.3282
     20 H          62.4720   90.7560    9.8557 H       1  UNL1        0.1471
     21 C          62.0685   88.6386   10.0793 C.3     1  UNL1        0.0920
     22 C          62.5167   87.3219   10.6410 C.3     1  UNL1        0.0287
     23 C          61.7114   86.2398    9.9848 C.3     1  UNL1        0.0281
     24 C          60.7655   86.8878    9.0176 C.ar    1  UNL1       -0.0245
     25 C          59.7317   86.3194    8.0912 C.ar    1  UNL1       -0.0045
     26 C          58.9187   87.2335    7.2233 C.ar    1  UNL1       -0.0003
     27 C          59.1394   88.7160    7.2817 C.ar    1  UNL1       -0.0003
     28 C          60.1732   89.2844    8.2081 C.ar    1  UNL1       -0.0030
     29 C          60.9862   88.3703    9.0760 C.ar    1  UNL1       -0.0085
@<TRIPOS>BOND
     1     1     2    1
     2     2     3   ar
     3     3     4   ar
     4     4     5   ar
     5     5    19    1
     6    21    19    1
     7    21    22    1
     8    22    23    1
     9    23    24    1
    10    24    25   ar
    11    25    26   ar
    12    26    27   ar
    13    27    28   ar
    14    28    29   ar
    15     5     6   ar
    16     6     7   ar
    17     7    12    1
    18    12    13   ar
    19    13    14   ar
    20    14    15   ar
    21    15    16   ar
    22    16    17   ar
    23    17    18    2
    24     7     8   ar
    25     8     9   ar
    26     9    10   ar
    27    10    11    1
    28    10     2   ar
    29     9     4   ar
    30    29    21    1
    31    17    12   ar
    32    29    24   ar
    33    19    20    1
@<TRIPOS>MOLECULE
*****
 29 33 0 0 0
SMALL
GASTEIGER

@<TRIPOS>ATOM
      1 C          60.5545   86.3639    9.2405 C.3     1  UNL1        0.0534
      2 C          61.3984   86.8941   10.3616 C.ar    1  UNL1        0.0730
      3 N          62.0009   86.0840   11.4710 N.ar    1  UNL1       -0.2299
      4 C          62.7628   87.0169   12.3651 C.ar    1  UNL1        0.1604
      5 C          63.5594   86.7828   13.6143 C.ar    1  UNL1        0.0813
      6 C          64.2243   87.9353   14.3068 C.ar    1  UNL1        0.0365
      7 C          64.0926   89.3218   13.7501 C.ar    1  UNL1        0.0857
      8 C          63.2960   89.5559   12.5009 C.ar    1  UNL1        0.0989
      9 N          62.6310   88.4035   11.8084 N.ar    1  UNL1       -0.2906
     10 C          61.7878   88.3276   10.5702 C.ar    1  UNL1        0.0567
     11 C          61.4018   89.4825    9.6943 C.3     1  UNL1        0.0517
     12 N          64.7575   90.4744   14.4426 N.ar    1  UNL1       -0.2716
     13 C          65.9565   91.1303   13.8243 C.ar    1  UNL1        0.0830
     14 C          66.6215   92.2828   14.5168 C.ar    1  UNL1        0.0192
     15 C          66.0874   92.7795   15.8276 C.ar    1  UNL1        0.0064
     16 C          64.8884   92.1237   16.4459 C.ar    1  UNL1        0.0611
     17 C          64.2235   90.9711   15.7534 C.ar    1  UNL1        0.2649
     18 O          63.0245   90.3152   16.3717 O.2     1  UNL1       -0.2666
     19 N          63.6911   85.3961   14.1711 N.pl3   1  UNL1       -0.3282
     20 H          63.7199   85.2575   15.1453 H       1  UNL1        0.1471
     21 C          63.7789   84.2207   13.2433 C.3     1  UNL1        0.0920
     22 C          64.6018   84.1450   11.9915 C.3     1  UNL1        0.0287
     23 C          64.3907   82.7921   11.3790 C.3     1  UNL1        0.0281
     24 C          63.4372   82.0316   12.2523 C.ar    1  UNL1       -0.0245
     25 C          62.8645   80.6493   12.1472 C.ar    1  UNL1       -0.0045
     26 C          61.9137   80.1498   13.1944 C.ar    1  UNL1       -0.0003
     27 C          61.5356   81.0327   14.3465 C.ar    1  UNL1       -0.0003
     28 C          62.1083   82.4151   14.4516 C.ar    1  UNL1       -0.0030
     29 C          63.0592   82.9145   13.4045 C.ar    1  UNL1       -0.0085
@<TRIPOS>BOND
     1     1     2    1
     2     2     3   ar
     3     3     4   ar
     4     4     5   ar
     5     5    19    1
     6    21    19    1
     7    21    22    1
     8    22    23    1
     9    23    24    1
    10    24    25   ar
    11    25    26   ar
    12    26    27   ar
    13    27    28   ar
    14    28    29   ar
    15     5     6   ar
    16     6     7   ar
    17     7    12    1
    18    12    13   ar
    19    13    14   ar
    20    14    15   ar
    21    15    16   ar
    22    16    17   ar
    23    17    18    2
    24     7     8   ar
    25     8     9   ar
    26     9    10   ar
    27    10    11    1
    28    10     2   ar
    29     9     4   ar
    30    29    21    1
    31    17    12   ar
    32    29    24   ar
    33    19    20    1
@<TRIPOS>MOLECULE
*****
 29 33 0 0 0
SMALL
GASTEIGER

@<TRIPOS>ATOM
      1 C          60.9779   89.1650    9.6217 C.3     1  UNL1        0.0534
      2 C          61.9765   89.4179   10.7120 C.ar    1  UNL1        0.0730
      3 N          62.1899   88.5651   11.9274 N.ar    1  UNL1       -0.2299
      4 C          63.2824   89.1883   12.7449 C.ar    1  UNL1        0.1604
      5 C          63.9163   88.7884   14.0442 C.ar    1  UNL1        0.0813
      6 C          65.0120   89.6264   14.6334 C.ar    1  UNL1        0.0365
      7 C          65.4738   90.8643   13.9233 C.ar    1  UNL1        0.0857
      8 C          64.8399   91.2642   12.6240 C.ar    1  UNL1        0.0989
      9 N          63.7442   90.4262   12.0348 N.ar    1  UNL1       -0.2906
     10 C          62.9371   90.5681   10.7784 C.ar    1  UNL1        0.0567
     11 C          63.0677   91.6673    9.7661 C.3     1  UNL1        0.0517
     12 N          66.5695   91.7023   14.5124 N.ar    1  UNL1       -0.2716
     13 C          67.9214   91.7336   13.8632 C.ar    1  UNL1        0.0830
     14 C          69.0171   92.5716   14.4523 C.ar    1  UNL1        0.0192
     15 C          68.7610   93.3784   15.6907 C.ar    1  UNL1        0.0064
     16 C          67.4091   93.3472   16.3399 C.ar    1  UNL1        0.0611
     17 C          66.3134   92.5091   15.7507 C.ar    1  UNL1        0.2649
     18 O          64.9615   92.4778   16.4000 O.2     1  UNL1       -0.2666
     19 N          63.4545   87.5504   14.7544 N.pl3   1  UNL1       -0.3282
     20 H          62.7656   87.6128   15.4549 H       1  UNL1        0.1471
     21 C          64.0424   86.2174   14.3971 C.3     1  UNL1        0.0920
     22 C          65.1370   85.5092   15.1389 C.3     1  UNL1        0.0287
     23 C          65.4100   84.2127   14.4357 C.3     1  UNL1        0.0281
     24 C          64.4841   84.1197   13.2592 C.ar    1  UNL1       -0.0245
     25 C          64.3015   83.0668   12.2065 C.ar    1  UNL1       -0.0045
     26 C          63.2736   83.2530   11.1300 C.ar    1  UNL1       -0.0003
     27 C          62.4284   84.4920   11.1062 C.ar    1  UNL1       -0.0003
     28 C          62.6111   85.5448   12.1589 C.ar    1  UNL1       -0.0030
     29 C          63.6389   85.3587   13.2354 C.ar    1  UNL1       -0.0085
@<TRIPOS>BOND
     1     1     2    1
     2     2     3   ar
     3     3     4   ar
     4     4     5   ar
     5     5    19    1
     6    21    19    1
     7    21    22    1
     8    22    23    1
     9    23    24    1
    10    24    25   ar
    11    25    26   ar
    12    26    27   ar
    13    27    28   ar
    14    28    29   ar
    15     5     6   ar
    16     6     7   ar
    17     7    12    1
    18    12    13   ar
    19    13    14   ar
    20    14    15   ar
    21    15    16   ar
    22    16    17   ar
    23    17    18    2
    24     7     8   ar
    25     8     9   ar
    26     9    10   ar
    27    10    11    1
    28    10     2   ar
    29     9     4   ar
    30    29    21    1
    31    17    12   ar
    32    29    24   ar
    33    19    20    1
@<TRIPOS>MOLECULE
*****
 29 33 0 0 0
SMALL
GASTEIGER

@<TRIPOS>ATOM
      1 C          58.5841   86.8607    7.4743 C.3     1  UNL1        0.0534
      2 C          59.6204   87.3873    8.4225 C.ar    1  UNL1        0.0730
      3 N          60.2285   86.6364    9.5698 N.ar    1  UNL1       -0.2299
      4 C          61.2144   87.5423   10.2461 C.ar    1  UNL1        0.1604
      5 C          62.1112   87.3429   11.4319 C.ar    1  UNL1        0.0813
      6 C          63.0092   88.4543   11.8883 C.ar    1  UNL1        0.0365
      7 C          63.0105   89.7650   11.1590 C.ar    1  UNL1        0.0857
      8 C          62.1138   89.9643    9.9732 C.ar    1  UNL1        0.0989
      9 N          61.2157   88.8530    9.5168 N.ar    1  UNL1       -0.2906
     10 C          60.2306   88.7572    8.3897 C.ar    1  UNL1        0.0567
     11 C          59.9116   89.8411    7.4031 C.3     1  UNL1        0.0517
     12 N          63.9086   90.8764   11.6154 N.ar    1  UNL1       -0.2716
     13 C          64.4538   91.8570   10.6197 C.ar    1  UNL1        0.0830
     14 C          65.3518   92.9684   11.0760 C.ar    1  UNL1        0.0192
     15 C          65.7047   93.0992   12.5281 C.ar    1  UNL1        0.0064
     16 C          65.1596   92.1187   13.5237 C.ar    1  UNL1        0.0611
     17 C          64.2615   91.0072   13.0673 C.ar    1  UNL1        0.2649
     18 O          63.7164   90.0267   14.0630 O.2     1  UNL1       -0.2666
     19 N          62.1099   86.0321   12.1613 N.pl3   1  UNL1       -0.3282
     20 H          61.7577   85.9799   13.0792 H       1  UNL1        0.1471
     21 C          62.6451   84.8010   11.4921 C.3     1  UNL1        0.0920
     22 C          63.3081   84.7457   10.1477 C.3     1  UNL1        0.0287
     23 C          63.6840   83.3195    9.8746 C.3     1  UNL1        0.0281
     24 C          63.2533   82.4933   11.0501 C.ar    1  UNL1       -0.0245
     25 C          63.3628   81.0256   11.3394 C.ar    1  UNL1       -0.0045
     26 C          62.8303   80.4734   12.6284 C.ar    1  UNL1       -0.0003
     27 C          62.1882   81.3891   13.6281 C.ar    1  UNL1       -0.0003
     28 C          62.0786   82.8568   13.3388 C.ar    1  UNL1       -0.0030
     29 C          62.6112   83.4089   12.0498 C.ar    1  UNL1       -0.0085
@<TRIPOS>BOND
     1     1     2    1
     2     2     3   ar
     3     3     4   ar
     4     4     5   ar
     5     5    19    1
     6    21    19    1
     7    21    22    1
     8    22    23    1
     9    23    24    1
    10    24    25   ar
    11    25    26   ar
    12    26    27   ar
    13    27    28   ar
    14    28    29   ar
    15     5     6   ar
    16     6     7   ar
    17     7    12    1
    18    12    13   ar
    19    13    14   ar
    20    14    15   ar
    21    15    16   ar
    22    16    17   ar
    23    17    18    2
    24     7     8   ar
    25     8     9   ar
    26     9    10   ar
    27    10    11    1
    28    10     2   ar
    29     9     4   ar
    30    29    21    1
    31    17    12   ar
    32    29    24   ar
    33    19    20    1
@<TRIPOS>MOLECULE
*****
 29 33 0 0 0
SMALL
GASTEIGER

@<TRIPOS>ATOM
      1 C          67.1018   93.8635   14.2416 C.3     1  UNL1        0.0534
      2 C          66.1373   92.7677   13.8965 C.ar    1  UNL1        0.0730
      3 N          65.7056   91.6546   14.8046 N.ar    1  UNL1       -0.2299
      4 C          64.7366   90.7917   14.0519 C.ar    1  UNL1        0.1604
      5 C          63.9849   89.5529   14.4396 C.ar    1  UNL1        0.0813
      6 C          63.0660   88.8939   13.4541 C.ar    1  UNL1        0.0365
      7 C          62.8987   89.4738   12.0809 C.ar    1  UNL1        0.0857
      8 C          63.6504   90.7126   11.6931 C.ar    1  UNL1        0.0989
      9 N          64.5693   91.3715   12.6786 N.ar    1  UNL1       -0.2906
     10 C          65.4350   92.5928   12.5826 C.ar    1  UNL1        0.0567
     11 C          65.5740   93.4828   11.3832 C.3     1  UNL1        0.0517
     12 N          61.9798   88.8148   11.0953 N.ar    1  UNL1       -0.2716
     13 C          61.1473   89.6521   10.1701 C.ar    1  UNL1        0.0830
     14 C          60.2284   88.9932    9.1845 C.ar    1  UNL1        0.0192
     15 C          60.1419   87.4969    9.1241 C.ar    1  UNL1        0.0064
     16 C          60.9743   86.6595   10.0493 C.ar    1  UNL1        0.0611
     17 C          61.8932   87.3185   11.0349 C.ar    1  UNL1        0.2649
     18 O          62.7257   86.4812   11.9600 O.2     1  UNL1       -0.2666
     19 N          64.1522   88.9731   15.8129 N.pl3   1  UNL1       -0.3282
     20 H          64.6753   89.4579   16.4916 H       1  UNL1        0.1471
     21 C          63.5225   87.6546   16.1521 C.3     1  UNL1        0.0920
     22 C          62.4178   87.4339   17.1426 C.3     1  UNL1        0.0287
     23 C          62.0995   85.9682   17.1630 C.3     1  UNL1        0.0281
     24 C          63.0074   85.2830   16.1852 C.ar    1  UNL1       -0.0245
     25 C          63.1470   83.8447   15.7830 C.ar    1  UNL1       -0.0045
     26 C          64.1660   83.4487   14.7560 C.ar    1  UNL1       -0.0003
     27 C          65.0454   84.4909   14.1312 C.ar    1  UNL1       -0.0003
     28 C          64.9059   85.9292   14.5334 C.ar    1  UNL1       -0.0030
     29 C          63.8869   86.3253   15.5604 C.ar    1  UNL1       -0.0085
@<TRIPOS>BOND
     1     1     2    1
     2     2     3   ar
     3     3     4   ar
     4     4     5   ar
     5     5    19    1
     6    21    19    1
     7    21    22    1
     8    22    23    1
     9    23    24    1
    10    24    25   ar
    11    25    26   ar
    12    26    27   ar
    13    27    28   ar
    14    28    29   ar
    15     5     6   ar
    16     6     7   ar
    17     7    12    1
    18    12    13   ar
    19    13    14   ar
    20    14    15   ar
    21    15    16   ar
    22    16    17   ar
    23    17    18    2
    24     7     8   ar
    25     8     9   ar
    26     9    10   ar
    27    10    11    1
    28    10     2   ar
    29     9     4   ar
    30    29    21    1
    31    17    12   ar
    32    29    24   ar
    33    19    20    1
