@<TRIPOS>MOLECULE
*****
 30 32 0 0 0
SMALL
GASTEIGER

@<TRIPOS>ATOM
      1 C          60.8124   89.1625    9.9441 C.3     1  UNL1        0.0051
      2 C          60.2978   89.6141   11.2788 C.3     1  UNL1        0.0216
      3 C          61.2365   90.2243   12.2771 C.3     1  UNL1        0.0922
      4 N          62.6897   90.3828   11.9408 N.pl3   1  UNL1       -0.2928
      5 C          63.2042   89.9312   10.6061 C.3     1  UNL1        0.0922
      6 C          62.2656   89.3211    9.6078 C.3     1  UNL1        0.0216
      7 C          63.6284   90.9929   12.9392 C.ar    1  UNL1        0.1409
      8 N          63.4875   90.6684   14.3968 N.ar    1  UNL1       -0.2085
      9 C          64.4262   91.2786   15.3951 C.ar    1  UNL1        0.2001
     10 N          65.5058   92.2132   14.9357 N.ar    1  UNL1       -0.2233
     11 C          65.6466   92.5377   13.4780 C.ar    1  UNL1        0.0924
     12 C          66.6068   93.4176   12.7338 C.ar    1  UNL1        0.0308
     13 C          66.2615   93.3513   11.2756 C.ar    1  UNL1        0.0842
     14 S          65.0880   92.4304   11.1185 S.2     1  UNL1       -0.0780
     15 C          64.7080   91.9276   12.4798 C.ar    1  UNL1        0.0788
     16 C          66.9662   94.0783   10.1687 C.2     1  UNL1        0.2488
     17 N          66.2284   95.0973    9.3520 N.am    1  UNL1       -0.3249
     18 O          68.4086   93.7862    9.8787 O.2     1  UNL1       -0.2698
     19 H          65.2817   95.2891    9.5423 H       1  UNL1        0.1453
     20 H          66.6908   95.5745    8.6255 H       1  UNL1        0.1453
     21 C          59.8738   88.5524    8.9458 C.3     1  UNL1        0.0214
     22 C          59.6533   87.0688    8.9330 C.3     1  UNL1        0.0894
     23 C          61.5565   85.7453   10.1062 C.2     1  UNL1        0.2215
     24 O          61.1139   86.2857   11.4336 O.2     1  UNL1       -0.2751
     25 N          60.8263   86.1369    8.8558 N.am    1  UNL1       -0.3044
     26 H          61.1168   85.7823    7.9846 H       1  UNL1        0.1494
     27 C          62.4946   84.4003   11.4517 C.3     1  UNL1        0.0091
     28 C          62.7294   84.8135   10.0290 C.3     1  UNL1        0.0689
     29 C          62.9641   85.2267    8.6063 C.3     1  UNL1        0.0091
     30 C          63.9023   83.8816    9.9519 C.3     1  UNL1        0.0091
@<TRIPOS>BOND
     1    27    28    1
     2    28    29    1
     3    28    30    1
     4    28    23    1
     5    23    24    2
     6    23    25   am
     7    25    22    1
     8    22    21    1
     9    21     1    1
    10     1     2    1
    11     2     3    1
    12     3     4    1
    13     4     7    1
    14     7     8   ar
    15     8     9   ar
    16     9    10   ar
    17    10    11   ar
    18    11    12   ar
    19    12    13   ar
    20    13    16    1
    21    16    17   am
    22    16    18    2
    23    13    14   ar
    24    14    15   ar
    25     4     5    1
    26     5     6    1
    27     6     1    1
    28    15     7   ar
    29    15    11   ar
    30    25    26    1
    31    17    19    1
    32    17    20    1
@<TRIPOS>MOLECULE
*****
 30 32 0 0 0
SMALL
GASTEIGER

@<TRIPOS>ATOM
      1 C          62.0869   88.8478   10.5346 C.3     1  UNL1        0.0051
      2 C          62.3477   90.2356   10.0285 C.3     1  UNL1        0.0216
      3 C          63.2044   91.1754   10.8240 C.3     1  UNL1        0.0922
      4 N          63.8003   90.7275   12.1256 N.pl3   1  UNL1       -0.2928
      5 C          63.5396   89.3398   12.6317 C.3     1  UNL1        0.0922
      6 C          62.6829   88.3999   11.8363 C.3     1  UNL1        0.0216
      7 C          64.6570   91.6674   12.9212 C.ar    1  UNL1        0.1409
      8 N          64.8240   91.4624   14.3976 N.ar    1  UNL1       -0.2085
      9 C          65.6806   92.4022   15.1931 C.ar    1  UNL1        0.2001
     10 N          66.3703   93.5470   14.5121 N.ar    1  UNL1       -0.2233
     11 C          66.2033   93.7520   13.0356 C.ar    1  UNL1        0.0924
     12 C          66.7550   94.7836   12.0967 C.ar    1  UNL1        0.0308
     13 C          66.2393   94.4813   10.7210 C.ar    1  UNL1        0.0842
     14 S          65.3689   93.2629   10.8096 S.2     1  UNL1       -0.0780
     15 C          65.3466   92.8122   12.2401 C.ar    1  UNL1        0.0788
     16 C          66.5411   95.2606    9.4753 C.2     1  UNL1        0.2488
     17 N          65.5074   96.1814    8.8978 N.am    1  UNL1       -0.3249
     18 O          67.8766   95.1191    8.8072 O.2     1  UNL1       -0.2698
     19 H          64.6308   96.2743    9.3363 H       1  UNL1        0.1453
     20 H          65.7054   96.6929    8.0802 H       1  UNL1        0.1453
     21 C          61.2303   87.9080    9.7391 C.3     1  UNL1        0.0214
     22 C          60.8958   86.5523   10.2869 C.3     1  UNL1        0.0894
     23 C          62.4629   84.7221   11.2589 C.2     1  UNL1        0.2215
     24 O          62.1426   85.1861   12.6489 O.2     1  UNL1       -0.2751
     25 N          61.8396   85.4052   10.0779 N.am    1  UNL1       -0.3044
     26 H          62.0499   85.1007    9.1656 H       1  UNL1        0.1494
     27 C          63.6018   83.9956    9.6234 C.3     1  UNL1        0.0091
     28 C          63.4066   83.5751   11.0499 C.3     1  UNL1        0.0689
     29 C          63.2114   83.1546   12.4765 C.3     1  UNL1        0.0091
     30 C          64.3504   82.4280   10.8409 C.3     1  UNL1        0.0091
@<TRIPOS>BOND
     1    27    28    1
     2    28    29    1
     3    28    30    1
     4    28    23    1
     5    23    24    2
     6    23    25   am
     7    25    22    1
     8    22    21    1
     9    21     1    1
    10     1     2    1
    11     2     3    1
    12     3     4    1
    13     4     7    1
    14     7     8   ar
    15     8     9   ar
    16     9    10   ar
    17    10    11   ar
    18    11    12   ar
    19    12    13   ar
    20    13    16    1
    21    16    17   am
    22    16    18    2
    23    13    14   ar
    24    14    15   ar
    25     4     5    1
    26     5     6    1
    27     6     1    1
    28    15     7   ar
    29    15    11   ar
    30    25    26    1
    31    17    19    1
    32    17    20    1
@<TRIPOS>MOLECULE
*****
 30 32 0 0 0
SMALL
GASTEIGER

@<TRIPOS>ATOM
      1 C          60.6864   88.4147    9.3555 C.3     1  UNL1        0.0051
      2 C          60.3047   89.7501    9.9222 C.3     1  UNL1        0.0216
      3 C          61.1064   90.3470   11.0407 C.3     1  UNL1        0.0922
      4 N          62.2897   89.6086   11.5925 N.pl3   1  UNL1       -0.2928
      5 C          62.6713   88.2732   11.0259 C.3     1  UNL1        0.0922
      6 C          61.8697   87.6763    9.9074 C.3     1  UNL1        0.0216
      7 C          63.0913   90.2055   12.7111 C.ar    1  UNL1        0.1409
      8 N          62.8663   89.7487   14.1219 N.ar    1  UNL1       -0.2085
      9 C          63.6680   90.3456   15.2404 C.ar    1  UNL1        0.2001
     10 N          64.6947   91.3994   14.9480 N.ar    1  UNL1       -0.2233
     11 C          64.9197   91.8562   13.5371 C.ar    1  UNL1        0.0924
     12 C          65.8547   92.8701   12.9474 C.ar    1  UNL1        0.0308
     13 C          65.6309   92.8998   11.4645 C.ar    1  UNL1        0.0842
     14 S          64.5576   91.9043   11.1376 S.2     1  UNL1       -0.0780
     15 C          64.1180   91.2593   12.4186 C.ar    1  UNL1        0.0788
     16 C          66.3536   93.7720   10.4810 C.2     1  UNL1        0.2488
     17 N          65.6484   94.9369    9.8519 N.am    1  UNL1       -0.3249
     18 O          67.7814   93.4793   10.1268 O.2     1  UNL1       -0.2698
     19 H          64.7112   95.1290   10.0844 H       1  UNL1        0.1453
     20 H          66.1227   95.5093    9.2065 H       1  UNL1        0.1453
     21 C          59.8848   87.8178    8.2370 C.3     1  UNL1        0.0214
     22 C          58.9794   88.6874    7.4161 C.3     1  UNL1        0.0894
     23 C          58.6572   90.5826    5.6684 C.2     1  UNL1        0.2215
     24 O          57.1690   90.4656    5.8159 O.2     1  UNL1       -0.2751
     25 N          59.5623   89.6935    6.4685 N.am    1  UNL1       -0.3044
     26 H          60.5391   89.7703    6.3717 H       1  UNL1        0.1494
     27 C          57.8710   92.1491    4.4735 C.3     1  UNL1        0.0091
     28 C          59.2402   91.5887    4.7209 C.3     1  UNL1        0.0689
     29 C          60.6094   91.0283    4.9683 C.3     1  UNL1        0.0091
     30 C          59.8232   92.5949    3.7733 C.3     1  UNL1        0.0091
@<TRIPOS>BOND
     1    27    28    1
     2    28    29    1
     3    28    30    1
     4    28    23    1
     5    23    24    2
     6    23    25   am
     7    25    22    1
     8    22    21    1
     9    21     1    1
    10     1     2    1
    11     2     3    1
    12     3     4    1
    13     4     7    1
    14     7     8   ar
    15     8     9   ar
    16     9    10   ar
    17    10    11   ar
    18    11    12   ar
    19    12    13   ar
    20    13    16    1
    21    16    17   am
    22    16    18    2
    23    13    14   ar
    24    14    15   ar
    25     4     5    1
    26     5     6    1
    27     6     1    1
    28    15     7   ar
    29    15    11   ar
    30    25    26    1
    31    17    19    1
    32    17    20    1
@<TRIPOS>MOLECULE
*****
 30 32 0 0 0
SMALL
GASTEIGER

@<TRIPOS>ATOM
      1 C          63.3892   83.3831   10.6089 C.3     1  UNL1        0.0051
      2 C          63.6614   83.9974    9.2678 C.3     1  UNL1        0.0216
      3 C          62.9939   85.2845    8.8830 C.3     1  UNL1        0.0922
      4 N          62.0542   85.9571    9.8392 N.pl3   1  UNL1       -0.2928
      5 C          61.7819   85.3428   11.1803 C.3     1  UNL1        0.0922
      6 C          62.4494   84.0559   11.5652 C.3     1  UNL1        0.0216
      7 C          61.3867   87.2442    9.4543 C.ar    1  UNL1        0.1409
      8 N          60.3662   87.2603    8.3551 N.ar    1  UNL1       -0.2085
      9 C          59.6987   88.5473    7.9703 C.ar    1  UNL1        0.2001
     10 N          60.0518   89.8181    8.6847 N.ar    1  UNL1       -0.2233
     11 C          61.0722   89.8020    9.7839 C.ar    1  UNL1        0.0924
     12 C          61.6202   90.8886   10.6609 C.ar    1  UNL1        0.0308
     13 C          62.6263   90.2731   11.5877 C.ar    1  UNL1        0.0842
     14 S          62.7002   88.8062   11.2836 S.2     1  UNL1       -0.0780
     15 C          61.7397   88.5150   10.1687 C.ar    1  UNL1        0.0788
     16 C          63.4194   90.9975   12.6348 C.2     1  UNL1        0.2488
     17 N          63.1167   90.7814   14.0880 N.am    1  UNL1       -0.3249
     18 O          64.5150   91.9381   12.2288 O.2     1  UNL1       -0.2698
     19 H          62.3976   90.1641   14.3545 H       1  UNL1        0.1453
     20 H          63.6372   91.2569   14.7752 H       1  UNL1        0.1453
     21 C          64.0566   82.0962   10.9938 C.3     1  UNL1        0.0214
     22 C          64.7076   81.9618   12.3385 C.3     1  UNL1        0.0894
     23 C          63.8016   83.2940   14.3767 C.2     1  UNL1        0.2215
     24 O          62.7374   82.2569   14.5815 O.2     1  UNL1       -0.2751
     25 N          64.7866   83.1465   13.2552 N.am    1  UNL1       -0.3044
     26 H          65.4851   83.8272   13.1208 H       1  UNL1        0.1494
     27 C          65.2191   84.8349   14.7176 C.3     1  UNL1        0.0091
     28 C          63.8806   84.4787   15.2934 C.3     1  UNL1        0.0689
     29 C          62.5422   84.1225   15.8692 C.3     1  UNL1        0.0091
     30 C          63.9598   85.6634   16.2101 C.3     1  UNL1        0.0091
@<TRIPOS>BOND
     1    27    28    1
     2    28    29    1
     3    28    30    1
     4    28    23    1
     5    23    24    2
     6    23    25   am
     7    25    22    1
     8    22    21    1
     9    21     1    1
    10     1     2    1
    11     2     3    1
    12     3     4    1
    13     4     7    1
    14     7     8   ar
    15     8     9   ar
    16     9    10   ar
    17    10    11   ar
    18    11    12   ar
    19    12    13   ar
    20    13    16    1
    21    16    17   am
    22    16    18    2
    23    13    14   ar
    24    14    15   ar
    25     4     5    1
    26     5     6    1
    27     6     1    1
    28    15     7   ar
    29    15    11   ar
    30    25    26    1
    31    17    19    1
    32    17    20    1
@<TRIPOS>MOLECULE
*****
 30 32 0 0 0
SMALL
GASTEIGER

@<TRIPOS>ATOM
      1 C          64.8864   91.2582   13.6274 C.3     1  UNL1        0.0051
      2 C          64.6369   89.8998   14.2126 C.3     1  UNL1        0.0216
      3 C          63.8031   88.9024   13.4642 C.3     1  UNL1        0.0922
      4 N          63.2188   89.2634   12.1307 N.pl3   1  UNL1       -0.2928
      5 C          63.4684   90.6218   11.5455 C.3     1  UNL1        0.0922
      6 C          64.3022   91.6192   12.2938 C.3     1  UNL1        0.0216
      7 C          62.3850   88.2660   11.3823 C.ar    1  UNL1        0.1409
      8 N          61.3862   88.7353   10.3664 N.ar    1  UNL1       -0.2085
      9 C          60.5525   87.7379    9.6180 C.ar    1  UNL1        0.2001
     10 N          60.7175   86.2712    9.8856 N.ar    1  UNL1       -0.2233
     11 C          61.7163   85.8019   10.9015 C.ar    1  UNL1        0.0924
     12 C          62.0977   84.4307   11.3751 C.ar    1  UNL1        0.0308
     13 C          63.1672   84.5806   12.4161 C.ar    1  UNL1        0.0842
     14 S          63.4468   86.0445   12.5859 S.2     1  UNL1       -0.0780
     15 C          62.5500   86.7993   11.6499 C.ar    1  UNL1        0.0788
     16 C          63.8392   83.4628   13.1572 C.2     1  UNL1        0.2488
     17 N          64.8351   82.5889   12.4541 N.am    1  UNL1       -0.3249
     18 O          63.5151   83.2190   14.6013 O.2     1  UNL1       -0.2698
     19 H          65.0478   82.7490   11.5062 H       1  UNL1        0.1453
     20 H          65.2761   81.8553   12.9404 H       1  UNL1        0.1453
     21 C          65.7202   92.2555   14.3757 C.3     1  UNL1        0.0214
     22 C          66.4569   93.3277   13.6290 C.3     1  UNL1        0.0894
     23 C          66.8912   93.6098   11.0830 C.2     1  UNL1        0.2215
     24 O          65.7552   94.5856   10.9974 O.2     1  UNL1       -0.2751
     25 N          67.2420   92.9809   12.3988 N.am    1  UNL1       -0.3044
     26 H          67.9876   92.3404   12.4550 H       1  UNL1        0.1494
     27 C          68.0345   91.9368   10.4555 C.3     1  UNL1        0.0091
     28 C          67.6763   93.2629    9.8529 C.3     1  UNL1        0.0689
     29 C          67.3181   94.5890    9.2504 C.3     1  UNL1        0.0091
     30 C          68.4614   92.9159    8.6228 C.3     1  UNL1        0.0091
@<TRIPOS>BOND
     1    27    28    1
     2    28    29    1
     3    28    30    1
     4    28    23    1
     5    23    24    2
     6    23    25   am
     7    25    22    1
     8    22    21    1
     9    21     1    1
    10     1     2    1
    11     2     3    1
    12     3     4    1
    13     4     7    1
    14     7     8   ar
    15     8     9   ar
    16     9    10   ar
    17    10    11   ar
    18    11    12   ar
    19    12    13   ar
    20    13    16    1
    21    16    17   am
    22    16    18    2
    23    13    14   ar
    24    14    15   ar
    25     4     5    1
    26     5     6    1
    27     6     1    1
    28    15     7   ar
    29    15    11   ar
    30    25    26    1
    31    17    19    1
    32    17    20    1
@<TRIPOS>MOLECULE
*****
 30 32 0 0 0
SMALL
GASTEIGER

@<TRIPOS>ATOM
      1 C          63.2163   87.1636   16.5084 C.3     1  UNL1        0.0051
      2 C          62.3046   86.0030   16.7765 C.3     1  UNL1        0.0216
      3 C          62.3668   84.7836   15.9052 C.3     1  UNL1        0.0922
      4 N          63.3406   84.7247   14.7658 N.pl3   1  UNL1       -0.2928
      5 C          64.2523   85.8853   14.4977 C.3     1  UNL1        0.0922
      6 C          64.1901   87.1047   15.3689 C.3     1  UNL1        0.0216
      7 C          63.4028   83.5053   13.8945 C.ar    1  UNL1        0.1409
      8 N          63.6028   82.1525   14.5109 N.ar    1  UNL1       -0.2085
      9 C          63.6650   80.9331   13.6396 C.ar    1  UNL1        0.2001
     10 N          63.5271   81.0665   12.1519 N.ar    1  UNL1       -0.2233
     11 C          63.3270   82.4193   11.5355 C.ar    1  UNL1        0.0924
     12 C          63.1606   82.8586   10.1110 C.ar    1  UNL1        0.0308
     13 C          62.9956   84.3494   10.1019 C.ar    1  UNL1        0.0842
     14 S          63.0600   84.8316   11.5208 S.2     1  UNL1       -0.0780
     15 C          63.2648   83.6387   12.4068 C.ar    1  UNL1        0.0788
     16 C          62.8004   85.2075    8.8870 C.2     1  UNL1        0.2488
     17 N          62.3914   86.6425    9.0402 N.am    1  UNL1       -0.3249
     18 O          63.0143   84.6305    7.5191 O.2     1  UNL1       -0.2698
     19 H          62.2511   87.0212    9.9380 H       1  UNL1        0.1453
     20 H          62.2633   87.2056    8.2429 H       1  UNL1        0.1453
     21 C          63.1542   88.3830   17.3796 C.3     1  UNL1        0.0214
     22 C          63.1416   89.7484   16.7588 C.3     1  UNL1        0.0894
     23 C          63.9514   90.6266   14.4516 C.2     1  UNL1        0.2215
     24 O          65.1738   91.2050   15.1008 O.2     1  UNL1       -0.2751
     25 N          62.9354   89.8984   15.2806 N.am    1  UNL1       -0.3044
     26 H          62.1331   89.5188   14.8545 H       1  UNL1        0.1494
     27 C          64.8408   91.7998   12.9243 C.3     1  UNL1        0.0091
     28 C          63.7452   90.7765   12.9735 C.3     1  UNL1        0.0689
     29 C          62.6495   89.7533   13.0226 C.3     1  UNL1        0.0091
     30 C          63.5389   90.9265   11.4953 C.3     1  UNL1        0.0091
@<TRIPOS>BOND
     1    27    28    1
     2    28    29    1
     3    28    30    1
     4    28    23    1
     5    23    24    2
     6    23    25   am
     7    25    22    1
     8    22    21    1
     9    21     1    1
    10     1     2    1
    11     2     3    1
    12     3     4    1
    13     4     7    1
    14     7     8   ar
    15     8     9   ar
    16     9    10   ar
    17    10    11   ar
    18    11    12   ar
    19    12    13   ar
    20    13    16    1
    21    16    17   am
    22    16    18    2
    23    13    14   ar
    24    14    15   ar
    25     4     5    1
    26     5     6    1
    27     6     1    1
    28    15     7   ar
    29    15    11   ar
    30    25    26    1
    31    17    19    1
    32    17    20    1
@<TRIPOS>MOLECULE
*****
 30 32 0 0 0
SMALL
GASTEIGER

@<TRIPOS>ATOM
      1 C          61.8145   88.9430   11.0508 C.3     1  UNL1        0.0051
      2 C          62.7470   89.0643   12.2194 C.3     1  UNL1        0.0216
      3 C          63.7375   90.1894   12.2749 C.3     1  UNL1        0.0922
      4 N          63.7955   91.1932   11.1619 N.pl3   1  UNL1       -0.2928
      5 C          62.8630   91.0719    9.9932 C.3     1  UNL1        0.0922
      6 C          61.8725   89.9469    9.9377 C.3     1  UNL1        0.0216
      7 C          64.7860   92.3183   11.2174 C.ar    1  UNL1        0.1409
      8 N          65.1080   93.0960    9.9759 N.ar    1  UNL1       -0.2085
      9 C          66.0985   94.2211   10.0314 C.ar    1  UNL1        0.2001
     10 N          66.7669   94.5685   11.3286 N.ar    1  UNL1       -0.2233
     11 C          66.4449   93.7908   12.5701 C.ar    1  UNL1        0.0924
     12 C          66.9411   93.9022   13.9812 C.ar    1  UNL1        0.0308
     13 C          66.2573   92.8460   14.7978 C.ar    1  UNL1        0.0842
     14 S          65.3384   92.0818   13.8914 S.2     1  UNL1       -0.0780
     15 C          65.4544   92.6658   12.5145 C.ar    1  UNL1        0.0788
     16 C          66.4573   92.5976   16.2636 C.2     1  UNL1        0.2488
     17 N          65.2995   92.7184   17.2096 N.am    1  UNL1       -0.3249
     18 O          67.8151   92.2284   16.7833 O.2     1  UNL1       -0.2698
     19 H          64.4083   92.9607   16.8685 H       1  UNL1        0.1453
     20 H          65.4307   92.5553   18.1716 H       1  UNL1        0.1453
     21 C          60.8240   87.8179   10.9952 C.3     1  UNL1        0.0214
     22 C          60.7475   86.9455    9.7774 C.3     1  UNL1        0.0894
     23 C          62.3429   85.1535   10.7741 C.2     1  UNL1        0.2215
     24 O          61.9485   85.5727   12.1592 O.2     1  UNL1       -0.2751
     25 N          61.7424   85.8399    9.5832 N.am    1  UNL1       -0.3044
     26 H          62.0013   85.5647    8.6741 H       1  UNL1        0.1494
     27 C          63.1379   83.6180   12.0029 C.3     1  UNL1        0.0091
     28 C          63.3378   84.0479   10.5798 C.3     1  UNL1        0.0689
     29 C          63.5376   84.4777    9.1567 C.3     1  UNL1        0.0091
     30 C          64.3327   82.9422   10.3856 C.3     1  UNL1        0.0091
@<TRIPOS>BOND
     1    27    28    1
     2    28    29    1
     3    28    30    1
     4    28    23    1
     5    23    24    2
     6    23    25   am
     7    25    22    1
     8    22    21    1
     9    21     1    1
    10     1     2    1
    11     2     3    1
    12     3     4    1
    13     4     7    1
    14     7     8   ar
    15     8     9   ar
    16     9    10   ar
    17    10    11   ar
    18    11    12   ar
    19    12    13   ar
    20    13    16    1
    21    16    17   am
    22    16    18    2
    23    13    14   ar
    24    14    15   ar
    25     4     5    1
    26     5     6    1
    27     6     1    1
    28    15     7   ar
    29    15    11   ar
    30    25    26    1
    31    17    19    1
    32    17    20    1
@<TRIPOS>MOLECULE
*****
 30 32 0 0 0
SMALL
GASTEIGER

@<TRIPOS>ATOM
      1 C          64.8143   91.1805   13.8132 C.3     1  UNL1        0.0051
      2 C          64.9808   89.9381   14.6370 C.3     1  UNL1        0.0216
      3 C          64.3901   88.6418   14.1671 C.3     1  UNL1        0.0922
      4 N          63.6329   88.5880   12.8734 N.pl3   1  UNL1       -0.2928
      5 C          63.4664   89.8303   12.0495 C.3     1  UNL1        0.0922
      6 C          64.0571   91.1266   12.5194 C.3     1  UNL1        0.0216
      7 C          63.0421   87.2917   12.4035 C.ar    1  UNL1        0.1409
      8 N          63.3961   86.0105   13.0986 N.ar    1  UNL1       -0.2085
      9 C          62.8053   84.7143   12.6286 C.ar    1  UNL1        0.2001
     10 N          61.8606   84.6993   11.4636 N.ar    1  UNL1       -0.2233
     11 C          61.5067   85.9805   10.7685 C.ar    1  UNL1        0.0924
     12 C          60.6111   86.2752    9.6019 C.ar    1  UNL1        0.0308
     13 C          60.6483   87.7536    9.3508 C.ar    1  UNL1        0.0842
     14 S          61.5669   88.3726   10.3622 S.2     1  UNL1       -0.0780
     15 C          62.0974   87.2767   11.2384 C.ar    1  UNL1        0.0788
     16 C          59.8985   88.4847    8.2768 C.2     1  UNL1        0.2488
     17 N          58.8736   87.7626    7.4533 N.am    1  UNL1       -0.3249
     18 O          60.1735   89.9378    8.0264 O.2     1  UNL1       -0.2698
     19 H          58.6931   86.8088    7.6176 H       1  UNL1        0.1453
     20 H          58.3815   88.2424    6.7484 H       1  UNL1        0.1453
     21 C          65.4050   92.4767   14.2830 C.3     1  UNL1        0.0214
     22 C          66.0358   93.4145   13.2969 C.3     1  UNL1        0.0894
     23 C          66.9598   93.4981   10.8701 C.2     1  UNL1        0.2215
     24 O          66.0456   94.6466   10.5615 O.2     1  UNL1       -0.2751
     25 N          66.9550   92.8821   12.2377 N.am    1  UNL1       -0.3044
     26 H          67.5550   92.1283   12.4402 H       1  UNL1        0.1494
     27 C          67.5670   94.1500    8.9449 C.3     1  UNL1        0.0091
     28 C          67.8789   92.9657    9.8110 C.3     1  UNL1        0.0689
     29 C          68.1909   91.7814   10.6771 C.3     1  UNL1        0.0091
     30 C          68.7981   92.4333    8.7518 C.3     1  UNL1        0.0091
@<TRIPOS>BOND
     1    27    28    1
     2    28    29    1
     3    28    30    1
     4    28    23    1
     5    23    24    2
     6    23    25   am
     7    25    22    1
     8    22    21    1
     9    21     1    1
    10     1     2    1
    11     2     3    1
    12     3     4    1
    13     4     7    1
    14     7     8   ar
    15     8     9   ar
    16     9    10   ar
    17    10    11   ar
    18    11    12   ar
    19    12    13   ar
    20    13    16    1
    21    16    17   am
    22    16    18    2
    23    13    14   ar
    24    14    15   ar
    25     4     5    1
    26     5     6    1
    27     6     1    1
    28    15     7   ar
    29    15    11   ar
    30    25    26    1
    31    17    19    1
    32    17    20    1
@<TRIPOS>MOLECULE
*****
 30 32 0 0 0
SMALL
GASTEIGER

@<TRIPOS>ATOM
      1 C          61.2931   88.8382   10.8205 C.3     1  UNL1        0.0051
      2 C          62.3955   88.1541   11.5732 C.3     1  UNL1        0.0216
      3 C          63.3472   88.9602   12.4067 C.3     1  UNL1        0.0922
      4 N          63.1963   90.4504   12.4874 N.pl3   1  UNL1       -0.2928
      5 C          62.0939   91.1345   11.7347 C.3     1  UNL1        0.0922
      6 C          61.1423   90.3285   10.9013 C.3     1  UNL1        0.0216
      7 C          64.1480   91.2565   13.3209 C.ar    1  UNL1        0.1409
      8 N          64.1239   91.1349   14.8158 N.ar    1  UNL1       -0.2085
      9 C          65.0755   91.9410   15.6492 C.ar    1  UNL1        0.2001
     10 N          66.0512   92.8687   14.9877 N.ar    1  UNL1       -0.2233
     11 C          66.0752   92.9903   13.4929 C.ar    1  UNL1        0.0924
     12 C          66.9182   93.8155   12.5664 C.ar    1  UNL1        0.0308
     13 C          66.4875   93.5195   11.1604 C.ar    1  UNL1        0.0842
     14 S          65.3784   92.5112   11.2178 S.2     1  UNL1       -0.0780
     15 C          65.1236   92.1842   12.6595 C.ar    1  UNL1        0.0788
     16 C          67.0648   94.1253    9.9154 C.2     1  UNL1        0.2488
     17 N          66.1771   94.8689    8.9620 N.am    1  UNL1       -0.3249
     18 O          68.5297   93.9875    9.6239 O.2     1  UNL1       -0.2698
     19 H          65.2156   94.9594    9.1534 H       1  UNL1        0.1453
     20 H          66.5559   95.2665    8.1449 H       1  UNL1        0.1453
     21 C          60.3415   88.0322    9.9870 C.3     1  UNL1        0.0214
     22 C          60.4304   86.5349    9.9839 C.3     1  UNL1        0.0894
     23 C          60.9931   85.5114    7.6631 C.2     1  UNL1        0.2215
     24 O          59.6224   85.8720    7.1718 O.2     1  UNL1       -0.2751
     25 N          61.3971   85.8428    9.0691 N.am    1  UNL1       -0.3044
     26 H          62.2967   85.6062    9.3915 H       1  UNL1        0.1494
     27 C          63.0868   85.1711    7.6734 C.3     1  UNL1        0.0091
     28 C          61.9597   84.8194    6.7483 C.3     1  UNL1        0.0689
     29 C          60.8325   84.4677    5.8233 C.3     1  UNL1        0.0091
     30 C          62.9264   84.1274    5.8336 C.3     1  UNL1        0.0091
@<TRIPOS>BOND
     1    27    28    1
     2    28    29    1
     3    28    30    1
     4    28    23    1
     5    23    24    2
     6    23    25   am
     7    25    22    1
     8    22    21    1
     9    21     1    1
    10     1     2    1
    11     2     3    1
    12     3     4    1
    13     4     7    1
    14     7     8   ar
    15     8     9   ar
    16     9    10   ar
    17    10    11   ar
    18    11    12   ar
    19    12    13   ar
    20    13    16    1
    21    16    17   am
    22    16    18    2
    23    13    14   ar
    24    14    15   ar
    25     4     5    1
    26     5     6    1
    27     6     1    1
    28    15     7   ar
    29    15    11   ar
    30    25    26    1
    31    17    19    1
    32    17    20    1
