@<TRIPOS>MOLECULE
*****
 58 62 0 0 0
SMALL
GASTEIGER

@<TRIPOS>ATOM
      1 C          62.4371   86.0039   11.3474 C.3     1  UNL1        0.1041
      2 C          61.3796   87.3286    9.3784 C.2     1  UNL1        0.2405
      3 O          62.6589   88.0923    9.2051 O.2     1  UNL1       -0.2733
      4 N          61.2687   86.2844   10.4495 N.am    1  UNL1       -0.3019
      5 H          60.4291   85.7832   10.5633 H       1  UNL1        0.1495
      6 C          60.2112   87.6091    8.4805 C.3     1  UNL1        0.1510
      7 C          59.4181   89.5167    6.9051 C.2     1  UNL1        0.4023
      8 O          59.5709   88.6048    5.7240 O.2     1  UNL1       -0.2264
      9 N          59.7382   89.0188    8.2834 N.am    1  UNL1       -0.2640
     10 H          59.6380   89.6174    9.0586 H       1  UNL1        0.1532
     11 O          58.9452   90.9265    6.7079 O.3     1  UNL1       -0.4280
     12 C          58.5492   91.4005    5.3410 C.3     1  UNL1        0.2561
     13 C          61.7261   92.0367    3.2037 C.ar    1  UNL1        0.0876
     14 N          61.0358   91.3767    4.3604 N.ar    1  UNL1       -0.2433
     15 C          59.6023   91.8184    4.3579 C.ar    1  UNL1        0.1094
     16 C          59.4067   92.7514    3.1998 C.ar    1  UNL1        0.0549
     17 S          60.7193   92.8863    2.4865 S.2     1  UNL1       -0.0705
     18 C          63.8733   92.9602    2.0692 C.3     1  UNL1        0.0069
     19 C          63.1698   91.8755    2.8300 C.3     1  UNL1        0.0465
     20 C          63.9101   90.6296    3.2169 C.3     1  UNL1        0.0069
     21 C          59.5157   86.4798    7.7799 C.3     1  UNL1        0.0270
     22 C          58.0182   86.3947    7.7978 C.3     1  UNL1        0.0022
     23 C          60.3176   85.4354    7.0613 C.3     1  UNL1        0.0022
     24 C          62.8949   87.0418   12.3288 C.3     1  UNL1        0.1445
     25 O          63.9532   86.7054   13.3372 O.3     1  UNL1       -0.3813
     26 H          64.2316   85.7838   13.2185 H       1  UNL1        0.2105
     27 C          62.2944   88.4161   12.3019 C.3     1  UNL1        0.1038
     28 N          63.1705   89.6209   12.4784 N.3     1  UNL1       -0.2620
     29 C          63.6740   90.3647   11.2771 C.3     1  UNL1        0.0901
     30 C          64.5501   91.5694   11.4537 C.3     1  UNL1        0.0899
     31 N          64.9226   92.0303   12.8317 N.3     1  UNL1       -0.2662
     32 C          64.4190   91.2865   14.0330 C.3     1  UNL1        0.0980
     33 C          63.5430   90.0818   13.8564 C.3     1  UNL1        0.1510
     34 C          63.0395   89.3380   15.0577 C.2     1  UNL1        0.2383
     35 O          61.7129   89.6955   15.6596 O.2     1  UNL1       -0.2736
     36 N          63.8626   88.2366   15.6572 N.am    1  UNL1       -0.3063
     37 H          64.7333   88.0019   15.2622 H       1  UNL1        0.1493
     38 C          63.3591   87.4927   16.8586 C.3     1  UNL1        0.0569
     39 C          63.0782   88.7952   17.5474 C.3     1  UNL1        0.0196
     40 C          63.6400   86.1902   16.1698 C.3     1  UNL1        0.0196
     41 C          62.8556   86.7488   18.0599 C.3     1  UNL1        0.0196
     42 C          65.7986   93.2350   13.0083 C.3     1  UNL1        0.0990
     43 C          66.2506   94.0159   11.8100 C.ar    1  UNL1       -0.0080
     44 C          65.8134   95.4400   11.6342 C.ar    1  UNL1       -0.0032
     45 C          66.2654   96.2209   10.4359 C.ar    1  UNL1       -0.0005
     46 C          67.1545   95.5776    9.4133 C.ar    1  UNL1       -0.0021
     47 C          67.5916   94.1535    9.5891 C.ar    1  UNL1        0.0054
     48 C          67.1397   93.3727   10.7874 C.ar    1  UNL1        0.0030
     49 C          67.7282   91.9962   10.6926 C.3     1  UNL1        0.1685
     50 O          68.5440   91.9263    9.4357 O.3     1  UNL1       -0.3443
     51 C          68.4596   93.2596    8.7537 C.3     1  UNL1        0.1688
     52 C          63.1477   84.6856   11.2638 C.3     1  UNL1        0.0484
     53 C          62.7971   83.5827   12.2181 C.ar    1  UNL1       -0.0204
     54 C          62.4881   83.9009   13.6511 C.ar    1  UNL1       -0.0042
     55 C          62.1375   82.7980   14.6054 C.ar    1  UNL1       -0.0003
     56 C          62.0957   81.3770   14.1267 C.ar    1  UNL1       -0.0000
     57 C          62.4046   81.0589   12.6937 C.ar    1  UNL1       -0.0003
     58 C          62.7553   82.1618   11.7394 C.ar    1  UNL1       -0.0042
@<TRIPOS>BOND
     1    18    19    1
     2    19    20    1
     3    19    13    1
     4    13    14   ar
     5    14    15   ar
     6    15    12    1
     7    12    11    1
     8    11     7    1
     9     7     8    2
    10     7     9   am
    11     6     9    1
    12     6     2    1
    13     2     3    2
    14     2     4   am
    15     4     1    1
    16     1    52    1
    17    52    53    1
    18    53    54   ar
    19    54    55   ar
    20    55    56   ar
    21    56    57   ar
    22    57    58   ar
    23     1    24    1
    24    24    25    1
    25    24    27    1
    26    27    28    1
    27    28    29    1
    28    29    30    1
    29    30    31    1
    30    31    42    1
    31    42    43    1
    32    43    44   ar
    33    44    45   ar
    34    45    46   ar
    35    46    47   ar
    36    47    48   ar
    37    48    49    1
    38    49    50    1
    39    50    51    1
    40    31    32    1
    41    32    33    1
    42    33    34    1
    43    34    35    2
    44    34    36   am
    45    36    38    1
    46    38    39    1
    47    38    40    1
    48    38    41    1
    49     6    21    1
    50    21    22    1
    51    21    23    1
    52    15    16   ar
    53    16    17   ar
    54    17    13   ar
    55    58    53   ar
    56    33    28    1
    57    48    43   ar
    58    51    47    1
    59     9    10    1
    60     4     5    1
    61    25    26    1
    62    36    37    1
@<TRIPOS>MOLECULE
*****
 58 62 0 0 0
SMALL
GASTEIGER

@<TRIPOS>ATOM
      1 C          63.2055   85.0273   12.8029 C.3     1  UNL1        0.1041
      2 C          63.9661   86.3968   14.8756 C.2     1  UNL1        0.2405
      3 O          65.3977   86.0793   14.5600 O.2     1  UNL1       -0.2733
      4 N          62.8700   85.8708   13.9971 N.am    1  UNL1       -0.3019
      5 H          61.9304   86.0791   14.2042 H       1  UNL1        0.1495
      6 C          63.6306   87.2403   16.0698 C.3     1  UNL1        0.1510
      7 C          62.9288   89.7409   16.0035 C.2     1  UNL1        0.4023
      8 O          61.4888   89.3340   15.8992 O.2     1  UNL1       -0.2264
      9 N          63.9997   88.6940   16.0888 N.am    1  UNL1       -0.2640
     10 H          64.9448   88.9611   16.1572 H       1  UNL1        0.1532
     11 O          63.2979   91.1946   16.0225 O.3     1  UNL1       -0.4280
     12 C          64.5443   91.6429   16.7264 C.3     1  UNL1        0.2561
     13 C          67.4230   92.1577   14.1741 C.ar    1  UNL1        0.0876
     14 N          66.1553   91.4781   14.5996 N.ar    1  UNL1       -0.2433
     15 C          65.7533   92.0388   15.9316 C.ar    1  UNL1        0.1094
     16 C          66.7726   93.0649   16.3293 C.ar    1  UNL1        0.0549
     17 S          67.8045   93.1384   15.2431 S.2     1  UNL1       -0.0705
     18 C          69.6125   91.4703   12.9561 C.3     1  UNL1        0.0069
     19 C          68.1768   91.9016   12.9029 C.3     1  UNL1        0.0465
     20 C          67.4950   92.0769   11.5784 C.3     1  UNL1        0.0069
     21 C          62.9260   86.6300   17.2449 C.3     1  UNL1        0.0270
     22 C          62.2769   85.2840   17.1140 C.3     1  UNL1        0.0022
     23 C          62.8704   87.3655   18.5511 C.3     1  UNL1        0.0022
     24 C          62.8263   85.4901   11.4274 C.3     1  UNL1        0.1445
     25 O          62.8434   84.5243   10.2799 O.3     1  UNL1       -0.3813
     26 H          63.1201   83.6503   10.5970 H       1  UNL1        0.2105
     27 C          62.4298   86.9187   11.1995 C.3     1  UNL1        0.1038
     28 N          61.5077   87.2700   10.0697 N.3     1  UNL1       -0.2620
     29 C          60.9224   86.1856    9.2144 C.3     1  UNL1        0.0901
     30 C          60.0003   86.5370    8.0847 C.3     1  UNL1        0.0899
     31 N          59.6635   87.9727    7.8103 N.3     1  UNL1       -0.2662
     32 C          60.2488   89.0571    8.6656 C.3     1  UNL1        0.0980
     33 C          61.1709   88.7057    9.7953 C.3     1  UNL1        0.1510
     34 C          61.7561   89.7901   10.6507 C.2     1  UNL1        0.2383
     35 O          60.8667   90.6031   11.5438 O.2     1  UNL1       -0.2736
     36 N          63.2309   90.0614   10.6128 N.am    1  UNL1       -0.3063
     37 H          63.8147   89.5277   10.0266 H       1  UNL1        0.1493
     38 C          63.8163   91.1458   11.4682 C.3     1  UNL1        0.0569
     39 C          63.9201   92.0375   10.2666 C.3     1  UNL1        0.0196
     40 C          63.7124   90.2539   12.6698 C.3     1  UNL1        0.0196
     41 C          64.4017   92.2301   12.3235 C.3     1  UNL1        0.0196
     42 C          58.7414   88.3240    6.6806 C.3     1  UNL1        0.0990
     43 C          58.9158   89.6196    5.9452 C.ar    1  UNL1       -0.0080
     44 C          60.2921   90.1093    5.6046 C.ar    1  UNL1       -0.0032
     45 C          60.4666   91.4050    4.8692 C.ar    1  UNL1       -0.0005
     46 C          59.2647   92.2109    4.4743 C.ar    1  UNL1       -0.0021
     47 C          57.8884   91.7212    4.8149 C.ar    1  UNL1        0.0054
     48 C          57.7139   90.4255    5.5503 C.ar    1  UNL1        0.0030
     49 C          56.2444   90.1989    5.7477 C.3     1  UNL1        0.1685
     50 O          55.5105   91.3544    5.1343 O.3     1  UNL1       -0.3443
     51 C          56.5266   92.2953    4.5577 C.3     1  UNL1        0.1688
     52 C          63.9203   83.7211   12.9843 C.3     1  UNL1        0.0484
     53 C          63.1357   82.4568   13.1736 C.ar    1  UNL1       -0.0204
     54 C          63.4530   81.2463   12.3464 C.ar    1  UNL1       -0.0042
     55 C          62.6684   79.9820   12.5358 C.ar    1  UNL1       -0.0003
     56 C          61.5665   79.9281   13.5522 C.ar    1  UNL1       -0.0000
     57 C          61.2493   81.1386   14.3793 C.ar    1  UNL1       -0.0003
     58 C          62.0339   82.4030   14.1900 C.ar    1  UNL1       -0.0042
@<TRIPOS>BOND
     1    18    19    1
     2    19    20    1
     3    19    13    1
     4    13    14   ar
     5    14    15   ar
     6    15    12    1
     7    12    11    1
     8    11     7    1
     9     7     8    2
    10     7     9   am
    11     6     9    1
    12     6     2    1
    13     2     3    2
    14     2     4   am
    15     4     1    1
    16     1    52    1
    17    52    53    1
    18    53    54   ar
    19    54    55   ar
    20    55    56   ar
    21    56    57   ar
    22    57    58   ar
    23     1    24    1
    24    24    25    1
    25    24    27    1
    26    27    28    1
    27    28    29    1
    28    29    30    1
    29    30    31    1
    30    31    42    1
    31    42    43    1
    32    43    44   ar
    33    44    45   ar
    34    45    46   ar
    35    46    47   ar
    36    47    48   ar
    37    48    49    1
    38    49    50    1
    39    50    51    1
    40    31    32    1
    41    32    33    1
    42    33    34    1
    43    34    35    2
    44    34    36   am
    45    36    38    1
    46    38    39    1
    47    38    40    1
    48    38    41    1
    49     6    21    1
    50    21    22    1
    51    21    23    1
    52    15    16   ar
    53    16    17   ar
    54    17    13   ar
    55    58    53   ar
    56    33    28    1
    57    48    43   ar
    58    51    47    1
    59     9    10    1
    60     4     5    1
    61    25    26    1
    62    36    37    1
@<TRIPOS>MOLECULE
*****
 58 62 0 0 0
SMALL
GASTEIGER

@<TRIPOS>ATOM
      1 C          62.8850   85.5122   12.5881 C.3     1  UNL1        0.1041
      2 C          63.4415   86.5508   14.9037 C.2     1  UNL1        0.2405
      3 O          64.8951   86.5922   14.5356 O.2     1  UNL1       -0.2733
      4 N          62.4365   86.0108   13.9299 N.am    1  UNL1       -0.3019
      5 H          61.4825   85.9836   14.1714 H       1  UNL1        0.1495
      6 C          62.9931   87.0493   16.2454 C.3     1  UNL1        0.1510
      7 C          63.5852   89.5617   15.9499 C.2     1  UNL1        0.4023
      8 O          64.8749   89.1797   15.2861 O.2     1  UNL1       -0.2264
      9 N          62.6443   88.4966   16.4295 N.am    1  UNL1       -0.2640
     10 H          61.7978   88.7473   16.8652 H       1  UNL1        0.1532
     11 O          63.2364   91.0090   16.1340 O.3     1  UNL1       -0.4280
     12 C          64.2297   91.9469   16.7535 C.3     1  UNL1        0.2561
     13 C          67.6919   93.1115   15.4412 C.ar    1  UNL1        0.0876
     14 N          66.7648   92.7747   16.5712 N.ar    1  UNL1       -0.2433
     15 C          65.4467   92.3661   15.9833 C.ar    1  UNL1        0.1094
     16 C          65.5592   92.4504   14.4899 C.ar    1  UNL1        0.0549
     17 S          66.9468   92.9110   14.1549 S.2     1  UNL1       -0.0705
     18 C          70.2101   92.8245   14.8699 C.3     1  UNL1        0.0069
     19 C          69.1144   93.5685   15.5741 C.3     1  UNL1        0.0465
     20 C          69.4411   94.7696   16.4112 C.3     1  UNL1        0.0069
     21 C          62.8934   86.1007   17.4030 C.3     1  UNL1        0.0270
     22 C          62.8723   84.6207   17.1601 C.3     1  UNL1        0.0022
     23 C          62.8147   86.6320   18.8036 C.3     1  UNL1        0.0022
     24 C          62.4473   86.2202   11.3403 C.3     1  UNL1        0.1445
     25 O          62.7941   85.6535    9.9955 O.3     1  UNL1       -0.3813
     26 H          63.2991   84.8333   10.1108 H       1  UNL1        0.2105
     27 C          61.6627   87.4950   11.4373 C.3     1  UNL1        0.1038
     28 N          62.3738   88.8158   11.4289 N.3     1  UNL1       -0.2620
     29 C          63.5643   89.0323   12.3154 C.3     1  UNL1        0.0901
     30 C          64.2753   90.3530   12.3070 C.3     1  UNL1        0.0899
     31 N          63.7959   91.4572   11.4120 N.3     1  UNL1       -0.2662
     32 C          62.6055   91.2406   10.5254 C.3     1  UNL1        0.0980
     33 C          61.8944   89.9199   10.5339 C.3     1  UNL1        0.1510
     34 C          60.7040   89.7033    9.6473 C.2     1  UNL1        0.2383
     35 O          59.4339   90.4607    9.8987 O.2     1  UNL1       -0.2736
     36 N          60.7837   88.7294    8.5093 N.am    1  UNL1       -0.3063
     37 H          61.6173   88.2323    8.3443 H       1  UNL1        0.1493
     38 C          59.5932   88.5127    7.6227 C.3     1  UNL1        0.0569
     39 C          59.2644   87.2554    8.3715 C.3     1  UNL1        0.0196
     40 C          59.9222   89.7702    6.8740 C.3     1  UNL1        0.0196
     41 C          58.4028   88.2962    6.7361 C.3     1  UNL1        0.0196
     42 C          64.5070   92.7779   11.4036 C.3     1  UNL1        0.0990
     43 C          65.7914   92.9334   10.6445 C.ar    1  UNL1       -0.0080
     44 C          66.7075   91.7583   10.4719 C.ar    1  UNL1       -0.0032
     45 C          67.9919   91.9138    9.7128 C.ar    1  UNL1       -0.0005
     46 C          68.3602   93.2444    9.1265 C.ar    1  UNL1       -0.0021
     47 C          67.4440   94.4195    9.2992 C.ar    1  UNL1        0.0054
     48 C          66.1596   94.2640   10.0582 C.ar    1  UNL1        0.0030
     49 C          65.4620   95.5918   10.0656 C.3     1  UNL1        0.1685
     50 O          66.3151   96.5681    9.3111 O.3     1  UNL1       -0.3443
     51 C          67.5402   95.8435    8.8374 C.3     1  UNL1        0.1688
     52 C          63.7712   84.3056   12.4942 C.3     1  UNL1        0.0484
     53 C          63.2107   82.9406   12.7636 C.ar    1  UNL1       -0.0204
     54 C          62.4688   82.6729   14.0396 C.ar    1  UNL1       -0.0042
     55 C          61.9084   81.3079   14.3090 C.ar    1  UNL1       -0.0003
     56 C          62.0898   80.2106   13.3025 C.ar    1  UNL1       -0.0000
     57 C          62.8316   80.4783   12.0266 C.ar    1  UNL1       -0.0003
     58 C          63.3921   81.8433   11.7571 C.ar    1  UNL1       -0.0042
@<TRIPOS>BOND
     1    18    19    1
     2    19    20    1
     3    19    13    1
     4    13    14   ar
     5    14    15   ar
     6    15    12    1
     7    12    11    1
     8    11     7    1
     9     7     8    2
    10     7     9   am
    11     6     9    1
    12     6     2    1
    13     2     3    2
    14     2     4   am
    15     4     1    1
    16     1    52    1
    17    52    53    1
    18    53    54   ar
    19    54    55   ar
    20    55    56   ar
    21    56    57   ar
    22    57    58   ar
    23     1    24    1
    24    24    25    1
    25    24    27    1
    26    27    28    1
    27    28    29    1
    28    29    30    1
    29    30    31    1
    30    31    42    1
    31    42    43    1
    32    43    44   ar
    33    44    45   ar
    34    45    46   ar
    35    46    47   ar
    36    47    48   ar
    37    48    49    1
    38    49    50    1
    39    50    51    1
    40    31    32    1
    41    32    33    1
    42    33    34    1
    43    34    35    2
    44    34    36   am
    45    36    38    1
    46    38    39    1
    47    38    40    1
    48    38    41    1
    49     6    21    1
    50    21    22    1
    51    21    23    1
    52    15    16   ar
    53    16    17   ar
    54    17    13   ar
    55    58    53   ar
    56    33    28    1
    57    48    43   ar
    58    51    47    1
    59     9    10    1
    60     4     5    1
    61    25    26    1
    62    36    37    1
@<TRIPOS>MOLECULE
*****
 58 62 0 0 0
SMALL
GASTEIGER

@<TRIPOS>ATOM
      1 C          62.9049   85.8501    9.3356 C.3     1  UNL1        0.1041
      2 C          60.9287   87.5339    9.2376 C.2     1  UNL1        0.2405
      3 O          59.9622   86.3927    9.1207 O.2     1  UNL1       -0.2733
      4 N          62.4000   87.2625    9.3450 N.am    1  UNL1       -0.3019
      5 H          63.0343   88.0115    9.4217 H       1  UNL1        0.1495
      6 C          60.4238   88.9463    9.2470 C.3     1  UNL1        0.1510
      7 C          58.9364   89.0804    7.1210 C.2     1  UNL1        0.4023
      8 O          58.1810   87.8659    7.5730 O.2     1  UNL1       -0.2264
      9 N          60.0579   89.6206    7.9580 N.am    1  UNL1       -0.2640
     10 H          60.5537   90.4177    7.6614 H       1  UNL1        0.1532
     11 O          58.5705   89.7547    5.8321 O.3     1  UNL1       -0.4280
     12 C          58.8375   91.2194    5.6497 C.3     1  UNL1        0.2561
     13 C          61.8419   91.9498    3.3032 C.ar    1  UNL1        0.0876
     14 N          61.2415   91.2409    4.4809 N.ar    1  UNL1       -0.2433
     15 C          59.8126   91.6798    4.6069 C.ar    1  UNL1        0.1094
     16 C          59.5300   92.6599    3.5071 C.ar    1  UNL1        0.0549
     17 S          60.7842   92.8267    2.7014 S.2     1  UNL1       -0.0705
     18 C          63.8607   92.8767    1.9557 C.3     1  UNL1        0.0069
     19 C          63.2525   91.8068    2.8134 C.3     1  UNL1        0.0465
     20 C          64.0548   90.5940    3.1811 C.3     1  UNL1        0.0069
     21 C          60.2849   89.6845   10.5454 C.3     1  UNL1        0.0270
     22 C          59.3577   89.1689   11.6057 C.3     1  UNL1        0.0022
     23 C          61.0733   90.9383   10.7835 C.3     1  UNL1        0.0022
     24 C          62.7486   84.9897   10.5543 C.3     1  UNL1        0.1445
     25 O          63.1920   83.5570   10.5227 O.3     1  UNL1       -0.3813
     26 H          63.5536   83.3497    9.6468 H       1  UNL1        0.2105
     27 C          62.1491   85.5618   11.8045 C.3     1  UNL1        0.1038
     28 N          62.8836   86.6211   12.5717 N.3     1  UNL1       -0.2620
     29 C          62.8129   88.0527   12.1294 C.3     1  UNL1        0.0901
     30 C          63.5474   89.1118   12.8967 C.3     1  UNL1        0.0899
     31 N          64.3526   88.7394   14.1062 N.3     1  UNL1       -0.2662
     32 C          64.4233   87.3078   14.5485 C.3     1  UNL1        0.0980
     33 C          63.6888   86.2487   13.7813 C.3     1  UNL1        0.1510
     34 C          63.7595   84.8172   14.2235 C.2     1  UNL1        0.2383
     35 O          64.3650   84.4715   15.5516 O.2     1  UNL1       -0.2736
     36 N          63.2245   83.7312   13.3378 N.am    1  UNL1       -0.3063
     37 H          62.8270   83.9581   12.4661 H       1  UNL1        0.1493
     38 C          63.2952   82.2996   13.7800 C.3     1  UNL1        0.0569
     39 C          64.5761   82.1277   13.0188 C.3     1  UNL1        0.0196
     40 C          62.0142   82.4715   14.5412 C.3     1  UNL1        0.0196
     41 C          63.3658   80.8680   14.2223 C.3     1  UNL1        0.0196
     42 C          65.0871   89.7986   14.8734 C.3     1  UNL1        0.0990
     43 C          65.4867   91.0752   14.1948 C.ar    1  UNL1       -0.0080
     44 C          64.8772   91.4458   12.8752 C.ar    1  UNL1       -0.0032
     45 C          65.2768   92.7224   12.1966 C.ar    1  UNL1       -0.0005
     46 C          66.2860   93.6284   12.8375 C.ar    1  UNL1       -0.0021
     47 C          66.8955   93.2578   14.1570 C.ar    1  UNL1        0.0054
     48 C          66.4958   91.9812   14.8357 C.ar    1  UNL1        0.0030
     49 C          67.2611   91.8807   16.1218 C.3     1  UNL1        0.1685
     50 O          68.1338   93.0952   16.2381 O.3     1  UNL1       -0.3443
     51 C          67.9078   93.9464   15.0238 C.3     1  UNL1        0.1688
     52 C          63.5659   85.2981    8.1074 C.3     1  UNL1        0.0484
     53 C          62.7320   84.8507    6.9436 C.ar    1  UNL1       -0.0204
     54 C          63.3495   84.7271    5.5822 C.ar    1  UNL1       -0.0042
     55 C          62.5156   84.2797    4.4184 C.ar    1  UNL1       -0.0003
     56 C          61.0643   83.9558    4.6160 C.ar    1  UNL1       -0.0000
     57 C          60.4470   84.0794    5.9775 C.ar    1  UNL1       -0.0003
     58 C          61.2808   84.5268    7.1413 C.ar    1  UNL1       -0.0042
@<TRIPOS>BOND
     1    18    19    1
     2    19    20    1
     3    19    13    1
     4    13    14   ar
     5    14    15   ar
     6    15    12    1
     7    12    11    1
     8    11     7    1
     9     7     8    2
    10     7     9   am
    11     6     9    1
    12     6     2    1
    13     2     3    2
    14     2     4   am
    15     4     1    1
    16     1    52    1
    17    52    53    1
    18    53    54   ar
    19    54    55   ar
    20    55    56   ar
    21    56    57   ar
    22    57    58   ar
    23     1    24    1
    24    24    25    1
    25    24    27    1
    26    27    28    1
    27    28    29    1
    28    29    30    1
    29    30    31    1
    30    31    42    1
    31    42    43    1
    32    43    44   ar
    33    44    45   ar
    34    45    46   ar
    35    46    47   ar
    36    47    48   ar
    37    48    49    1
    38    49    50    1
    39    50    51    1
    40    31    32    1
    41    32    33    1
    42    33    34    1
    43    34    35    2
    44    34    36   am
    45    36    38    1
    46    38    39    1
    47    38    40    1
    48    38    41    1
    49     6    21    1
    50    21    22    1
    51    21    23    1
    52    15    16   ar
    53    16    17   ar
    54    17    13   ar
    55    58    53   ar
    56    33    28    1
    57    48    43   ar
    58    51    47    1
    59     9    10    1
    60     4     5    1
    61    25    26    1
    62    36    37    1
@<TRIPOS>MOLECULE
*****
 58 62 0 0 0
SMALL
GASTEIGER

@<TRIPOS>ATOM
      1 C          63.5780   90.4939   13.7954 C.3     1  UNL1        0.1041
      2 C          63.9646   88.1834   14.9188 C.2     1  UNL1        0.2405
      3 O          64.7349   87.7272   13.7153 O.2     1  UNL1       -0.2733
      4 N          63.3861   89.5668   14.9588 N.am    1  UNL1       -0.3019
      5 H          62.8805   89.8662   15.7487 H       1  UNL1        0.1495
      6 C          63.7727   87.2563   16.0823 C.3     1  UNL1        0.1510
      7 C          63.3582   84.7163   15.7264 C.2     1  UNL1        0.4023
      8 O          61.8996   84.9856   15.5031 O.2     1  UNL1       -0.2264
      9 N          64.2947   85.8516   16.0159 N.am    1  UNL1       -0.2640
     10 H          65.2521   85.6748   16.1625 H       1  UNL1        0.1532
     11 O          63.8802   83.3116   15.6601 O.3     1  UNL1       -0.4280
     12 C          63.8974   82.5789   14.3513 C.3     1  UNL1        0.2561
     13 C          60.7352   80.3549   14.0052 C.ar    1  UNL1        0.0876
     14 N          61.4283   81.5725   14.5410 N.ar    1  UNL1       -0.2433
     15 C          62.8468   81.5504   14.0538 C.ar    1  UNL1        0.1094
     16 C          63.0304   80.3192   13.2169 C.ar    1  UNL1        0.0549
     17 S          61.7253   79.5804   13.1869 S.2     1  UNL1       -0.0705
     18 C          58.2253   81.0146   14.1291 C.3     1  UNL1        0.0069
     19 C          59.3033   79.9781   14.2455 C.3     1  UNL1        0.0465
     20 C          58.9495   78.5647   14.6021 C.3     1  UNL1        0.0069
     21 C          63.0588   87.7338   17.3120 C.3     1  UNL1        0.0270
     22 C          62.6545   86.7534   18.3728 C.3     1  UNL1        0.0022
     23 C          62.7491   89.1918   17.4810 C.3     1  UNL1        0.0022
     24 C          63.1742   90.0613   12.4171 C.3     1  UNL1        0.1445
     25 O          63.8765   90.6259   11.2179 O.3     1  UNL1       -0.3813
     26 H          64.5593   91.2509   11.5076 H       1  UNL1        0.2105
     27 C          62.0681   89.0640   12.2379 C.3     1  UNL1        0.1038
     28 N          61.3459   88.9726   10.9263 N.3     1  UNL1       -0.2620
     29 C          60.5709   90.1499   10.4132 C.3     1  UNL1        0.0901
     30 C          59.8487   90.0584    9.1017 C.3     1  UNL1        0.0899
     31 N          59.9017   88.7896    8.3033 N.3     1  UNL1       -0.2662
     32 C          60.6767   87.6123    8.8164 C.3     1  UNL1        0.0980
     33 C          61.3988   87.7038   10.1279 C.3     1  UNL1        0.1510
     34 C          62.1739   86.5266   10.6411 C.2     1  UNL1        0.2383
     35 O          62.7175   86.5381   12.0390 O.2     1  UNL1       -0.2736
     36 N          62.4053   85.3377    9.7563 N.am    1  UNL1       -0.3063
     37 H          62.0486   85.3301    8.8387 H       1  UNL1        0.1493
     38 C          63.1804   84.1603   10.2694 C.3     1  UNL1        0.0569
     39 C          63.9562   84.1119    8.9865 C.3     1  UNL1        0.0196
     40 C          62.4046   84.2087   11.5522 C.3     1  UNL1        0.0196
     41 C          63.9554   82.9830   10.7825 C.3     1  UNL1        0.0196
     42 C          59.1795   88.6982    6.9918 C.3     1  UNL1        0.0990
     43 C          59.1764   89.8689    6.0540 C.ar    1  UNL1       -0.0080
     44 C          60.4722   90.4142    5.5308 C.ar    1  UNL1       -0.0032
     45 C          60.4691   91.5849    4.5931 C.ar    1  UNL1       -0.0005
     46 C          59.1703   92.2104    4.1785 C.ar    1  UNL1       -0.0021
     47 C          57.8745   91.6651    4.7017 C.ar    1  UNL1        0.0054
     48 C          57.8776   90.4944    5.6395 C.ar    1  UNL1        0.0030
     49 C          56.4539   90.1766    5.9889 C.3     1  UNL1        0.1685
     50 O          55.5709   91.1510    5.2671 O.3     1  UNL1       -0.3443
     51 C          56.4489   92.0709    4.4715 C.3     1  UNL1        0.1688
     52 C          64.1737   91.8537   14.0102 C.3     1  UNL1        0.0484
     53 C          65.6201   91.9884   14.3838 C.ar    1  UNL1       -0.0204
     54 C          66.6854   91.7600   13.3527 C.ar    1  UNL1       -0.0042
     55 C          68.1319   91.8946   13.7263 C.ar    1  UNL1       -0.0003
     56 C          68.5131   92.2577   15.1310 C.ar    1  UNL1       -0.0000
     57 C          67.4478   92.4860   16.1620 C.ar    1  UNL1       -0.0003
     58 C          66.0013   92.3514   15.7884 C.ar    1  UNL1       -0.0042
@<TRIPOS>BOND
     1    18    19    1
     2    19    20    1
     3    19    13    1
     4    13    14   ar
     5    14    15   ar
     6    15    12    1
     7    12    11    1
     8    11     7    1
     9     7     8    2
    10     7     9   am
    11     6     9    1
    12     6     2    1
    13     2     3    2
    14     2     4   am
    15     4     1    1
    16     1    52    1
    17    52    53    1
    18    53    54   ar
    19    54    55   ar
    20    55    56   ar
    21    56    57   ar
    22    57    58   ar
    23     1    24    1
    24    24    25    1
    25    24    27    1
    26    27    28    1
    27    28    29    1
    28    29    30    1
    29    30    31    1
    30    31    42    1
    31    42    43    1
    32    43    44   ar
    33    44    45   ar
    34    45    46   ar
    35    46    47   ar
    36    47    48   ar
    37    48    49    1
    38    49    50    1
    39    50    51    1
    40    31    32    1
    41    32    33    1
    42    33    34    1
    43    34    35    2
    44    34    36   am
    45    36    38    1
    46    38    39    1
    47    38    40    1
    48    38    41    1
    49     6    21    1
    50    21    22    1
    51    21    23    1
    52    15    16   ar
    53    16    17   ar
    54    17    13   ar
    55    58    53   ar
    56    33    28    1
    57    48    43   ar
    58    51    47    1
    59     9    10    1
    60     4     5    1
    61    25    26    1
    62    36    37    1
@<TRIPOS>MOLECULE
*****
 58 62 0 0 0
SMALL
GASTEIGER

@<TRIPOS>ATOM
      1 C          61.1447   90.4584   10.5429 C.3     1  UNL1        0.1041
      2 C          60.3378   88.2937    9.3541 C.2     1  UNL1        0.2405
      3 O          60.1751   87.6231   10.6859 O.2     1  UNL1       -0.2733
      4 N          60.8226   89.7114    9.2826 N.am    1  UNL1       -0.3019
      5 H          60.9295   90.1516    8.4085 H       1  UNL1        0.1495
      6 C          60.0158   87.5467    8.0939 C.3     1  UNL1        0.1510
      7 C          59.2627   89.4615    6.5076 C.2     1  UNL1        0.4023
      8 O          60.4888   90.2452    6.8715 O.2     1  UNL1       -0.2264
      9 N          59.0262   88.1122    7.1188 N.am    1  UNL1       -0.2640
     10 H          58.2215   87.5979    6.8799 H       1  UNL1        0.1532
     11 O          58.2731   90.0271    5.5325 O.3     1  UNL1       -0.4280
     12 C          58.3773   91.4610    5.1047 C.3     1  UNL1        0.2561
     13 C          61.6385   92.0911    3.0964 C.ar    1  UNL1        0.0876
     14 N          60.8927   91.4043    4.2019 N.ar    1  UNL1       -0.2433
     15 C          59.4731   91.8880    4.1735 C.ar    1  UNL1        0.1094
     16 C          59.3415   92.8737    3.0505 C.ar    1  UNL1        0.0549
     17 S          60.6798   92.9992    2.3848 S.2     1  UNL1       -0.0705
     18 C          63.8193   90.6871    3.2491 C.3     1  UNL1        0.0069
     19 C          63.0884   91.9028    2.7613 C.3     1  UNL1        0.0465
     20 C          63.8075   92.9303    1.9383 C.3     1  UNL1        0.0069
     21 C          60.6834   86.2341    7.8087 C.3     1  UNL1        0.0270
     22 C          60.0507   85.2618    6.8577 C.3     1  UNL1        0.0022
     23 C          61.9838   85.8936    8.4745 C.3     1  UNL1        0.0022
     24 C          62.5742   90.7108   10.9206 C.3     1  UNL1        0.1445
     25 O          63.5630   91.1329    9.8746 O.3     1  UNL1       -0.3813
     26 H          63.1178   91.1948    9.0151 H       1  UNL1        0.2105
     27 C          63.0149   90.5412   12.3443 C.3     1  UNL1        0.1038
     28 N          63.3661   89.1783   12.8633 N.3     1  UNL1       -0.2620
     29 C          62.7918   87.9561   12.2103 C.3     1  UNL1        0.0901
     30 C          63.1430   86.5933   12.7293 C.3     1  UNL1        0.0899
     31 N          64.0685   86.4527   13.9014 N.3     1  UNL1       -0.2662
     32 C          64.6427   87.6749   14.5545 C.3     1  UNL1        0.0980
     33 C          64.2915   89.0377   14.0354 C.3     1  UNL1        0.1510
     34 C          64.8658   90.2599   14.6885 C.2     1  UNL1        0.2383
     35 O          64.2078   90.8392   15.9056 O.2     1  UNL1       -0.2736
     36 N          66.0980   90.9028   14.1244 N.am    1  UNL1       -0.3063
     37 H          66.5299   90.5226   13.3255 H       1  UNL1        0.1493
     38 C          66.6723   92.1250   14.7774 C.3     1  UNL1        0.0569
     39 C          67.5850   91.2596   15.5946 C.3     1  UNL1        0.0196
     40 C          65.7596   92.9905   13.9601 C.3     1  UNL1        0.0196
     41 C          67.2466   93.3473   15.4303 C.3     1  UNL1        0.0196
     42 C          64.4196   85.0899   14.4204 C.3     1  UNL1        0.0990
     43 C          63.6157   83.8962   13.9976 C.ar    1  UNL1       -0.0080
     44 C          62.5804   83.3242   14.9201 C.ar    1  UNL1       -0.0032
     45 C          61.7765   82.1305   14.4972 C.ar    1  UNL1       -0.0005
     46 C          62.0079   81.5088   13.1519 C.ar    1  UNL1       -0.0021
     47 C          63.0432   82.0807   12.2295 C.ar    1  UNL1        0.0054
     48 C          63.8471   83.2744   12.6523 C.ar    1  UNL1        0.0030
     49 C          64.7911   83.6159   11.5377 C.3     1  UNL1        0.1685
     50 O          64.5706   82.6332   10.4260 O.3     1  UNL1       -0.3443
     51 C          63.4904   81.6844   10.8535 C.3     1  UNL1        0.1688
     52 C          60.0371   90.9530   11.4254 C.3     1  UNL1        0.0484
     53 C          59.3375   90.0049   12.3536 C.ar    1  UNL1       -0.0204
     54 C          57.9616   89.5084   12.0213 C.ar    1  UNL1       -0.0042
     55 C          57.2620   88.5603   12.9495 C.ar    1  UNL1       -0.0003
     56 C          57.9383   88.1086   14.2100 C.ar    1  UNL1       -0.0000
     57 C          59.3142   88.6052   14.5422 C.ar    1  UNL1       -0.0003
     58 C          60.0138   89.5533   13.6140 C.ar    1  UNL1       -0.0042
@<TRIPOS>BOND
     1    18    19    1
     2    19    20    1
     3    19    13    1
     4    13    14   ar
     5    14    15   ar
     6    15    12    1
     7    12    11    1
     8    11     7    1
     9     7     8    2
    10     7     9   am
    11     6     9    1
    12     6     2    1
    13     2     3    2
    14     2     4   am
    15     4     1    1
    16     1    52    1
    17    52    53    1
    18    53    54   ar
    19    54    55   ar
    20    55    56   ar
    21    56    57   ar
    22    57    58   ar
    23     1    24    1
    24    24    25    1
    25    24    27    1
    26    27    28    1
    27    28    29    1
    28    29    30    1
    29    30    31    1
    30    31    42    1
    31    42    43    1
    32    43    44   ar
    33    44    45   ar
    34    45    46   ar
    35    46    47   ar
    36    47    48   ar
    37    48    49    1
    38    49    50    1
    39    50    51    1
    40    31    32    1
    41    32    33    1
    42    33    34    1
    43    34    35    2
    44    34    36   am
    45    36    38    1
    46    38    39    1
    47    38    40    1
    48    38    41    1
    49     6    21    1
    50    21    22    1
    51    21    23    1
    52    15    16   ar
    53    16    17   ar
    54    17    13   ar
    55    58    53   ar
    56    33    28    1
    57    48    43   ar
    58    51    47    1
    59     9    10    1
    60     4     5    1
    61    25    26    1
    62    36    37    1
@<TRIPOS>MOLECULE
*****
 58 62 0 0 0
SMALL
GASTEIGER

@<TRIPOS>ATOM
      1 C          64.0755   90.5591   13.0585 C.3     1  UNL1        0.1041
      2 C          63.3799   88.9110   14.9427 C.2     1  UNL1        0.2405
      3 O          62.0827   89.6460   15.1067 O.2     1  UNL1       -0.2733
      4 N          64.3763   89.3676   13.9186 N.am    1  UNL1       -0.3019
      5 H          65.2277   88.8852   13.8110 H       1  UNL1        0.1495
      6 C          63.6807   87.7195   15.8027 C.3     1  UNL1        0.1510
      7 C          63.8226   85.3144   14.8303 C.2     1  UNL1        0.4023
      8 O          62.3340   85.1769   14.9533 O.2     1  UNL1       -0.2264
      9 N          64.4960   86.5857   15.2550 N.am    1  UNL1       -0.2640
     10 H          65.4730   86.6760   15.1742 H       1  UNL1        0.1532
     11 O          64.6378   84.1807   14.2825 O.3     1  UNL1       -0.4280
     12 C          64.4158   82.7854   14.7862 C.3     1  UNL1        0.2561
     13 C          62.7828   80.2810   12.3110 C.ar    1  UNL1        0.0876
     14 N          63.9429   81.1279   12.7430 N.ar    1  UNL1       -0.2433
     15 C          63.5550   81.8351   14.0077 C.ar    1  UNL1        0.1094
     16 C          62.1551   81.4252   14.3573 C.ar    1  UNL1        0.0549
     17 S          61.6778   80.4647   13.3087 S.2     1  UNL1       -0.0705
     18 C          62.8240   80.0136    9.7270 C.3     1  UNL1        0.0069
     19 C          62.7358   79.4042   11.0948 C.3     1  UNL1        0.0465
     20 C          62.6005   77.9180   11.2465 C.3     1  UNL1        0.0069
     21 C          63.1663   87.6617   17.2106 C.3     1  UNL1        0.0270
     22 C          62.7555   86.3475   17.8056 C.3     1  UNL1        0.0022
     23 C          63.0628   88.9181   18.0235 C.3     1  UNL1        0.0022
     24 C          63.2545   90.3974   11.8136 C.3     1  UNL1        0.1445
     25 O          63.6157   91.1589   10.5728 O.3     1  UNL1       -0.3813
     26 H          64.3987   91.7049   10.7450 H       1  UNL1        0.2105
     27 C          62.0722   89.4742   11.8096 C.3     1  UNL1        0.1038
     28 N          61.2964   89.2548   10.5446 N.3     1  UNL1       -0.2620
     29 C          60.4648   90.3645    9.9728 C.3     1  UNL1        0.0901
     30 C          59.6890   90.1451    8.7079 C.3     1  UNL1        0.0899
     31 N          59.7448   88.8160    8.0148 N.3     1  UNL1       -0.2662
     32 C          60.5764   87.7063    8.5866 C.3     1  UNL1        0.0980
     33 C          61.3522   87.9257    9.8515 C.3     1  UNL1        0.1510
     34 C          62.1838   86.8160   10.4234 C.2     1  UNL1        0.2383
     35 O          62.9093   87.0146   11.7211 O.2     1  UNL1       -0.2736
     36 N          62.2899   85.5077    9.6974 N.am    1  UNL1       -0.3063
     37 H          61.8137   85.3773    8.8457 H       1  UNL1        0.1493
     38 C          63.1215   84.3979   10.2692 C.3     1  UNL1        0.0569
     39 C          62.3276   84.4579   11.5404 C.3     1  UNL1        0.0196
     40 C          63.9154   84.3379    8.9980 C.3     1  UNL1        0.0196
     41 C          63.9531   83.2881   10.8409 C.3     1  UNL1        0.0196
     42 C          58.9690   88.5967    6.7499 C.3     1  UNL1        0.0990
     43 C          58.4192   89.7700    5.9942 C.ar    1  UNL1       -0.0080
     44 C          56.9403   90.0193    5.9685 C.ar    1  UNL1       -0.0032
     45 C          56.3905   91.1925    5.2128 C.ar    1  UNL1       -0.0005
     46 C          57.3196   92.1166    4.4828 C.ar    1  UNL1       -0.0021
     47 C          58.7985   91.8673    4.5086 C.ar    1  UNL1        0.0054
     48 C          59.3483   90.6940    5.2643 C.ar    1  UNL1        0.0030
     49 C          60.8404   90.7019    5.1111 C.3     1  UNL1        0.1685
     50 O          61.2129   91.8802    4.2607 O.3     1  UNL1       -0.3443
     51 C          59.9509   92.6004    3.8883 C.3     1  UNL1        0.1688
     52 C          64.5957   91.9124   13.4434 C.3     1  UNL1        0.0484
     53 C          65.9088   92.0358   14.1578 C.ar    1  UNL1       -0.0204
     54 C          67.1923   91.8351   13.4078 C.ar    1  UNL1       -0.0042
     55 C          68.5055   91.9585   14.1222 C.ar    1  UNL1       -0.0003
     56 C          68.5352   92.2826   15.5865 C.ar    1  UNL1       -0.0000
     57 C          67.2516   92.4833   16.3364 C.ar    1  UNL1       -0.0003
     58 C          65.9385   92.3599   15.6220 C.ar    1  UNL1       -0.0042
@<TRIPOS>BOND
     1    18    19    1
     2    19    20    1
     3    19    13    1
     4    13    14   ar
     5    14    15   ar
     6    15    12    1
     7    12    11    1
     8    11     7    1
     9     7     8    2
    10     7     9   am
    11     6     9    1
    12     6     2    1
    13     2     3    2
    14     2     4   am
    15     4     1    1
    16     1    52    1
    17    52    53    1
    18    53    54   ar
    19    54    55   ar
    20    55    56   ar
    21    56    57   ar
    22    57    58   ar
    23     1    24    1
    24    24    25    1
    25    24    27    1
    26    27    28    1
    27    28    29    1
    28    29    30    1
    29    30    31    1
    30    31    42    1
    31    42    43    1
    32    43    44   ar
    33    44    45   ar
    34    45    46   ar
    35    46    47   ar
    36    47    48   ar
    37    48    49    1
    38    49    50    1
    39    50    51    1
    40    31    32    1
    41    32    33    1
    42    33    34    1
    43    34    35    2
    44    34    36   am
    45    36    38    1
    46    38    39    1
    47    38    40    1
    48    38    41    1
    49     6    21    1
    50    21    22    1
    51    21    23    1
    52    15    16   ar
    53    16    17   ar
    54    17    13   ar
    55    58    53   ar
    56    33    28    1
    57    48    43   ar
    58    51    47    1
    59     9    10    1
    60     4     5    1
    61    25    26    1
    62    36    37    1
@<TRIPOS>MOLECULE
*****
 58 62 0 0 0
SMALL
GASTEIGER

@<TRIPOS>ATOM
      1 C          62.9760   85.5132   12.2519 C.3     1  UNL1        0.1041
      2 C          63.8200   86.4053   14.5414 C.2     1  UNL1        0.2405
      3 O          65.1212   85.6863   14.3418 O.2     1  UNL1       -0.2733
      4 N          62.7474   86.3187   13.4964 N.am    1  UNL1       -0.3019
      5 H          61.8934   86.7906   13.6274 H       1  UNL1        0.1495
      6 C          63.5914   87.2108   15.7860 C.3     1  UNL1        0.1510
      7 C          62.9059   89.7141   15.9016 C.2     1  UNL1        0.4023
      8 O          61.4604   89.3161   15.9475 O.2     1  UNL1       -0.2264
      9 N          63.9714   88.6614   15.8208 N.am    1  UNL1       -0.2640
     10 H          64.9201   88.9226   15.7907 H       1  UNL1        0.1532
     11 O          63.2858   91.1648   15.9364 O.3     1  UNL1       -0.4280
     12 C          64.5740   91.5874   16.5782 C.3     1  UNL1        0.2561
     13 C          67.2752   92.1969   13.8583 C.ar    1  UNL1        0.0876
     14 N          66.0142   91.5334   14.3269 N.ar    1  UNL1       -0.2433
     15 C          65.7368   92.0002   15.7252 C.ar    1  UNL1        0.1094
     16 C          66.8264   92.9522   16.1208 C.ar    1  UNL1        0.0549
     17 S          67.7772   93.0737   14.9670 S.2     1  UNL1       -0.0705
     18 C          67.2197   92.4860   11.2770 C.3     1  UNL1        0.0069
     19 C          67.9209   92.0154   12.5167 C.3     1  UNL1        0.0465
     20 C          69.2679   91.3633   12.4147 C.3     1  UNL1        0.0069
     21 C          62.9829   86.5656   16.9957 C.3     1  UNL1        0.0270
     22 C          62.4227   85.1772   16.9033 C.3     1  UNL1        0.0022
     23 C          62.9344   87.3088   18.2977 C.3     1  UNL1        0.0022
     24 C          62.3473   85.9376   10.9578 C.3     1  UNL1        0.1445
     25 O          62.8481   85.3750    9.6607 O.3     1  UNL1       -0.3813
     26 H          63.5750   84.7569    9.8355 H       1  UNL1        0.2105
     27 C          61.2178   86.9247   10.9609 C.3     1  UNL1        0.1038
     28 N          60.6210   87.3855    9.6641 N.3     1  UNL1       -0.2620
     29 C          59.9934   86.3918    8.7322 C.3     1  UNL1        0.0901
     30 C          59.3967   86.8528    7.4354 C.3     1  UNL1        0.0899
     31 N          59.4277   88.3075    7.0707 N.3     1  UNL1       -0.2662
     32 C          60.0553   89.3012    8.0027 C.3     1  UNL1        0.0980
     33 C          60.6520   88.8402    9.2994 C.3     1  UNL1        0.1510
     34 C          61.2796   89.8339   10.2314 C.2     1  UNL1        0.2383
     35 O          60.4179   90.8006   10.9882 O.2     1  UNL1       -0.2736
     36 N          62.7691   89.8609   10.4066 N.am    1  UNL1       -0.3063
     37 H          63.3348   89.2264    9.9099 H       1  UNL1        0.1493
     38 C          63.3969   90.8547   11.3386 C.3     1  UNL1        0.0569
     39 C          63.2192   89.8970   12.4793 C.3     1  UNL1        0.0196
     40 C          63.5745   91.8123   10.1979 C.3     1  UNL1        0.0196
     41 C          64.0246   91.8484   12.2706 C.3     1  UNL1        0.0196
     42 C          58.8310   88.7683    5.7740 C.3     1  UNL1        0.0990
     43 C          58.9615   90.2030    5.3562 C.ar    1  UNL1       -0.0080
     44 C          57.8079   91.1446    5.5366 C.ar    1  UNL1       -0.0032
     45 C          57.9384   92.5794    5.1188 C.ar    1  UNL1       -0.0005
     46 C          59.2225   93.0724    4.5207 C.ar    1  UNL1       -0.0021
     47 C          60.3762   92.1308    4.3403 C.ar    1  UNL1        0.0054
     48 C          60.2456   90.6961    4.7581 C.ar    1  UNL1        0.0030
     49 C          61.5438   90.0066    4.4597 C.3     1  UNL1        0.1685
     50 O          62.4768   91.0151    3.8575 O.3     1  UNL1       -0.3443
     51 C          61.7551   92.3280    3.7837 C.3     1  UNL1        0.1688
     52 C          63.8333   84.2834   12.3014 C.3     1  UNL1        0.0484
     53 C          63.2276   82.9612   12.6689 C.ar    1  UNL1       -0.0204
     54 C          62.5227   82.7986   13.9830 C.ar    1  UNL1       -0.0042
     55 C          61.9170   81.4765   14.3505 C.ar    1  UNL1       -0.0003
     56 C          62.0162   80.3170   13.4040 C.ar    1  UNL1       -0.0000
     57 C          62.7211   80.4797   12.0899 C.ar    1  UNL1       -0.0003
     58 C          63.3268   81.8018   11.7224 C.ar    1  UNL1       -0.0042
@<TRIPOS>BOND
     1    18    19    1
     2    19    20    1
     3    19    13    1
     4    13    14   ar
     5    14    15   ar
     6    15    12    1
     7    12    11    1
     8    11     7    1
     9     7     8    2
    10     7     9   am
    11     6     9    1
    12     6     2    1
    13     2     3    2
    14     2     4   am
    15     4     1    1
    16     1    52    1
    17    52    53    1
    18    53    54   ar
    19    54    55   ar
    20    55    56   ar
    21    56    57   ar
    22    57    58   ar
    23     1    24    1
    24    24    25    1
    25    24    27    1
    26    27    28    1
    27    28    29    1
    28    29    30    1
    29    30    31    1
    30    31    42    1
    31    42    43    1
    32    43    44   ar
    33    44    45   ar
    34    45    46   ar
    35    46    47   ar
    36    47    48   ar
    37    48    49    1
    38    49    50    1
    39    50    51    1
    40    31    32    1
    41    32    33    1
    42    33    34    1
    43    34    35    2
    44    34    36   am
    45    36    38    1
    46    38    39    1
    47    38    40    1
    48    38    41    1
    49     6    21    1
    50    21    22    1
    51    21    23    1
    52    15    16   ar
    53    16    17   ar
    54    17    13   ar
    55    58    53   ar
    56    33    28    1
    57    48    43   ar
    58    51    47    1
    59     9    10    1
    60     4     5    1
    61    25    26    1
    62    36    37    1
@<TRIPOS>MOLECULE
*****
 58 62 0 0 0
SMALL
GASTEIGER

@<TRIPOS>ATOM
      1 C          63.6420   83.6440   10.8104 C.3     1  UNL1        0.1041
      2 C          63.5638   85.0458   12.9964 C.2     1  UNL1        0.2405
      3 O          62.1262   85.3811   12.7300 O.2     1  UNL1       -0.2733
      4 N          64.3216   84.1773   12.0366 N.am    1  UNL1       -0.3019
      5 H          65.2652   83.9573   12.2115 H       1  UNL1        0.1495
      6 C          64.2434   85.5791   14.2227 C.3     1  UNL1        0.1510
      7 C          63.4032   87.1971   16.0737 C.2     1  UNL1        0.4023
      8 O          63.1463   86.0286   16.9784 O.2     1  UNL1       -0.2264
      9 N          63.9518   86.9724   14.6958 N.am    1  UNL1       -0.2640
     10 H          64.1205   87.7393   14.1020 H       1  UNL1        0.1532
     11 O          63.1116   88.5904   16.5468 O.3     1  UNL1       -0.4280
     12 C          63.1507   89.7350   15.5782 C.3     1  UNL1        0.2561
     13 C          66.4344   91.7454   15.0866 C.ar    1  UNL1        0.0876
     14 N          65.5467   90.5837   14.7510 N.ar    1  UNL1       -0.2433
     15 C          64.3083   90.6889   15.5908 C.ar    1  UNL1        0.1094
     16 C          64.4306   91.9155   16.4455 C.ar    1  UNL1        0.0549
     17 S          65.7446   92.5684   16.1339 S.2     1  UNL1       -0.0705
     18 C          68.0372   91.6998   13.0423 C.3     1  UNL1        0.0069
     19 C          67.7763   92.0333   14.4813 C.3     1  UNL1        0.0465
     20 C          68.8573   92.6549   15.3150 C.3     1  UNL1        0.0069
     21 C          65.2146   84.7192   14.9758 C.3     1  UNL1        0.0270
     22 C          66.6626   85.1049   15.0426 C.3     1  UNL1        0.0022
     23 C          64.7379   83.4735   15.6622 C.3     1  UNL1        0.0022
     24 C          63.2510   84.5779    9.7036 C.3     1  UNL1        0.1445
     25 O          63.2188   84.0888    8.2859 O.3     1  UNL1       -0.3813
     26 H          63.4759   83.1539    8.2605 H       1  UNL1        0.2105
     27 C          62.8920   86.0007   10.0145 C.3     1  UNL1        0.1038
     28 N          61.7726   86.6707    9.2740 N.3     1  UNL1       -0.2620
     29 C          60.9523   85.8913    8.2894 C.3     1  UNL1        0.0901
     30 C          59.8330   86.5614    7.5490 C.3     1  UNL1        0.0899
     31 N          59.5339   88.0108    7.7934 N.3     1  UNL1       -0.2662
     32 C          60.3543   88.7902    8.7781 C.3     1  UNL1        0.0980
     33 C          61.4736   88.1202    9.5184 C.3     1  UNL1        0.1510
     34 C          62.2939   88.8996   10.5031 C.2     1  UNL1        0.2383
     35 O          62.8227   88.2288   11.7361 O.2     1  UNL1       -0.2736
     36 N          62.5855   90.3499   10.2547 N.am    1  UNL1       -0.3063
     37 H          62.2385   90.7901    9.4454 H       1  UNL1        0.1493
     38 C          63.4059   91.1293   11.2394 C.3     1  UNL1        0.0569
     39 C          62.4938   90.6908   12.3464 C.3     1  UNL1        0.0196
     40 C          64.3180   91.5679   10.1322 C.3     1  UNL1        0.0196
     41 C          64.2263   91.9088   12.2240 C.3     1  UNL1        0.0196
     42 C          58.4146   88.6808    7.0530 C.3     1  UNL1        0.0990
     43 C          58.7054   89.8295    6.1333 C.ar    1  UNL1       -0.0080
     44 C          60.1246   90.1839    5.8014 C.ar    1  UNL1       -0.0032
     45 C          60.4154   91.3326    4.8816 C.ar    1  UNL1       -0.0005
     46 C          59.2869   92.1268    4.2937 C.ar    1  UNL1       -0.0021
     47 C          57.8677   91.7724    4.6256 C.ar    1  UNL1        0.0054
     48 C          57.5769   90.6237    5.5454 C.ar    1  UNL1        0.0030
     49 C          56.0881   90.5104    5.6890 C.3     1  UNL1        0.1685
     50 O          55.4587   91.5890    4.8580 O.3     1  UNL1       -0.3443
     51 C          56.5585   92.3690    4.2008 C.3     1  UNL1        0.1688
     52 C          63.3534   82.1769   10.6909 C.3     1  UNL1        0.0484
     53 C          62.7883   81.4261   11.8600 C.ar    1  UNL1       -0.0204
     54 C          62.1874   82.1748   13.0127 C.ar    1  UNL1       -0.0042
     55 C          61.6223   81.4240   14.1818 C.ar    1  UNL1       -0.0003
     56 C          61.6580   79.9244   14.1983 C.ar    1  UNL1       -0.0000
     57 C          62.2588   79.1758   13.0456 C.ar    1  UNL1       -0.0003
     58 C          62.8240   79.9266   11.8765 C.ar    1  UNL1       -0.0042
@<TRIPOS>BOND
     1    18    19    1
     2    19    20    1
     3    19    13    1
     4    13    14   ar
     5    14    15   ar
     6    15    12    1
     7    12    11    1
     8    11     7    1
     9     7     8    2
    10     7     9   am
    11     6     9    1
    12     6     2    1
    13     2     3    2
    14     2     4   am
    15     4     1    1
    16     1    52    1
    17    52    53    1
    18    53    54   ar
    19    54    55   ar
    20    55    56   ar
    21    56    57   ar
    22    57    58   ar
    23     1    24    1
    24    24    25    1
    25    24    27    1
    26    27    28    1
    27    28    29    1
    28    29    30    1
    29    30    31    1
    30    31    42    1
    31    42    43    1
    32    43    44   ar
    33    44    45   ar
    34    45    46   ar
    35    46    47   ar
    36    47    48   ar
    37    48    49    1
    38    49    50    1
    39    50    51    1
    40    31    32    1
    41    32    33    1
    42    33    34    1
    43    34    35    2
    44    34    36   am
    45    36    38    1
    46    38    39    1
    47    38    40    1
    48    38    41    1
    49     6    21    1
    50    21    22    1
    51    21    23    1
    52    15    16   ar
    53    16    17   ar
    54    17    13   ar
    55    58    53   ar
    56    33    28    1
    57    48    43   ar
    58    51    47    1
    59     9    10    1
    60     4     5    1
    61    25    26    1
    62    36    37    1
