@<TRIPOS>MOLECULE
*****
 28 30 0 0 0
SMALL
GASTEIGER

@<TRIPOS>ATOM
      1 C          68.4803   92.4173   13.9128 C.3     1  UNL1        0.0342
      2 C          67.0641   92.0296   13.6065 C.ar    1  UNL1        0.0115
      3 C          66.2439   91.3105   14.6361 C.ar    1  UNL1       -0.0052
      4 C          64.8276   90.9228   14.3299 C.ar    1  UNL1       -0.0165
      5 C          64.2315   91.2542   12.9939 C.ar    1  UNL1       -0.0052
      6 C          65.0516   91.9733   11.9643 C.ar    1  UNL1        0.0115
      7 C          64.4555   92.3047   10.6283 C.3     1  UNL1        0.0342
      8 C          66.4679   92.3610   12.2706 C.ar    1  UNL1        0.1306
      9 C          64.0075   90.2037   15.3596 C.3     1  UNL1        0.0755
     10 C          63.8035   88.7213   15.2544 C.ar    1  UNL1        0.1051
     11 C          63.9266   87.9009   14.0047 C.ar    1  UNL1        0.0585
     12 C          63.6398   86.4716   14.3584 C.ar    1  UNL1        0.1766
     13 O          63.3394   86.4088   15.8266 O.2     1  UNL1       -0.3537
     14 N          63.4406   87.7992   16.3804 N.ar    1  UNL1       -0.0810
     15 C          63.6513   85.3094   13.4102 C.ar    1  UNL1        0.0372
     16 C          64.4835   84.0996   13.7169 C.ar    1  UNL1        0.0036
     17 C          64.4950   82.9374   12.7688 C.ar    1  UNL1        0.0068
     18 C          63.6744   82.9849   11.5140 C.ar    1  UNL1        0.0346
     19 BR         63.6860   81.8225   10.5658 Br      1  UNL1       -0.0490
     20 C          62.8423   84.1946   11.2074 C.ar    1  UNL1        0.0068
     21 C          62.8307   85.3569   12.1556 C.ar    1  UNL1        0.0036
     22 O          67.2881   93.0802   11.2409 O.3     1  UNL1       -0.4780
     23 C          66.8329   94.4086   10.7136 C.3     1  UNL1        0.1646
     24 C          67.3084   94.0275    9.3429 C.3     1  UNL1        0.0495
     25 C          66.3574   94.7897   12.0842 C.3     1  UNL1        0.0495
     26 C          66.3777   95.7371   10.1863 C.2     1  UNL1        0.0863
     27 O          67.3758   96.6973    9.6103 O.co2   1  UNL1       -0.5457
     28 O          64.9244   96.1054   10.2351 O.co2   1  UNL1       -0.5457
@<TRIPOS>UNITY_ATOM_ATTR
27 1
charge -1
@<TRIPOS>BOND
     1     1     2    1
     2     2     3   ar
     3     3     4   ar
     4     4     9    1
     5     9    10    1
     6    10    11   ar
     7    11    12   ar
     8    12    15    1
     9    15    16   ar
    10    16    17   ar
    11    17    18   ar
    12    18    19    1
    13    18    20   ar
    14    20    21   ar
    15    12    13   ar
    16    13    14   ar
    17     4     5   ar
    18     5     6   ar
    19     6     7    1
    20     6     8   ar
    21     8    22    1
    22    22    23    1
    23    23    24    1
    24    23    25    1
    25    23    26    1
    26    26    27   ar
    27    26    28   ar
    28     8     2   ar
    29    14    10   ar
    30    21    15   ar
@<TRIPOS>MOLECULE
*****
 28 30 0 0 0
SMALL
GASTEIGER

@<TRIPOS>ATOM
      1 C          64.4723   92.5427   10.6664 C.3     1  UNL1        0.0342
      2 C          65.0528   92.0376   11.9540 C.ar    1  UNL1        0.0115
      3 C          64.4231   90.8696   12.6533 C.ar    1  UNL1       -0.0052
      4 C          65.0036   90.3645   13.9409 C.ar    1  UNL1       -0.0165
      5 C          66.2138   91.0274   14.5292 C.ar    1  UNL1       -0.0052
      6 C          66.8434   92.1955   13.8298 C.ar    1  UNL1        0.0115
      7 C          68.0536   92.8585   14.4180 C.3     1  UNL1        0.0342
      8 C          66.2629   92.7006   12.5422 C.ar    1  UNL1        0.1306
      9 C          64.3739   89.1963   14.6403 C.3     1  UNL1        0.0755
     10 C          63.8362   88.0455   13.8425 C.ar    1  UNL1        0.1051
     11 C          63.8418   86.6046   14.2594 C.ar    1  UNL1        0.0585
     12 C          63.2075   85.8021   13.1624 C.ar    1  UNL1        0.1766
     13 O          62.8098   86.7470   12.0674 O.2     1  UNL1       -0.3537
     14 N          63.1983   88.1335   12.4878 N.ar    1  UNL1       -0.0810
     15 C          63.0062   84.3157   13.1606 C.ar    1  UNL1        0.0372
     16 C          63.2565   83.5265   11.9097 C.ar    1  UNL1        0.0036
     17 C          63.0552   82.0401   11.9079 C.ar    1  UNL1        0.0068
     18 C          62.6038   81.3429   13.1570 C.ar    1  UNL1        0.0346
     19 BR         62.4025   79.8564   13.1552 Br      1  UNL1       -0.0490
     20 C          62.3536   82.1321   14.4078 C.ar    1  UNL1        0.0068
     21 C          62.5549   83.6185   14.4096 C.ar    1  UNL1        0.0036
     22 O          66.8926   93.8687   11.8428 O.3     1  UNL1       -0.4780
     23 C          67.3363   93.7383   10.4159 C.3     1  UNL1        0.1646
     24 C          68.0042   92.4355   10.7426 C.3     1  UNL1        0.0495
     25 C          66.6684   95.0410   10.0892 C.3     1  UNL1        0.0495
     26 C          67.7799   93.6079    8.9890 C.2     1  UNL1        0.0863
     27 O          68.4991   92.3715    8.5371 O.co2   1  UNL1       -0.5457
     28 O          67.5044   94.7139    8.0138 O.co2   1  UNL1       -0.5457
@<TRIPOS>UNITY_ATOM_ATTR
27 1
charge -1
@<TRIPOS>BOND
     1     1     2    1
     2     2     3   ar
     3     3     4   ar
     4     4     9    1
     5     9    10    1
     6    10    11   ar
     7    11    12   ar
     8    12    15    1
     9    15    16   ar
    10    16    17   ar
    11    17    18   ar
    12    18    19    1
    13    18    20   ar
    14    20    21   ar
    15    12    13   ar
    16    13    14   ar
    17     4     5   ar
    18     5     6   ar
    19     6     7    1
    20     6     8   ar
    21     8    22    1
    22    22    23    1
    23    23    24    1
    24    23    25    1
    25    23    26    1
    26    26    27   ar
    27    26    28   ar
    28     8     2   ar
    29    14    10   ar
    30    21    15   ar
@<TRIPOS>MOLECULE
*****
 28 30 0 0 0
SMALL
GASTEIGER

@<TRIPOS>ATOM
      1 C          68.0783   92.8248   14.4416 C.3     1  UNL1        0.0342
      2 C          66.8601   92.1643   13.8674 C.ar    1  UNL1        0.0115
      3 C          66.2458   90.9872   14.5654 C.ar    1  UNL1       -0.0052
      4 C          65.0276   90.3267   13.9912 C.ar    1  UNL1       -0.0165
      5 C          64.4236   90.8432   12.7191 C.ar    1  UNL1       -0.0052
      6 C          65.0379   92.0203   12.0211 C.ar    1  UNL1        0.0115
      7 C          64.4339   92.5368   10.7489 C.3     1  UNL1        0.0342
      8 C          66.2561   92.6808   12.5953 C.ar    1  UNL1        0.1306
      9 C          64.4134   89.1495   14.6893 C.3     1  UNL1        0.0755
     10 C          63.8575   88.0092   13.8888 C.ar    1  UNL1        0.1051
     11 C          63.8852   86.5614   14.2799 C.ar    1  UNL1        0.0585
     12 C          63.2211   85.7739   13.1896 C.ar    1  UNL1        0.1766
     13 O          62.7830   86.7350   12.1246 O.2     1  UNL1       -0.3537
     14 N          63.1763   88.1165   12.5567 N.ar    1  UNL1       -0.0810
     15 C          63.0289   84.2864   13.1681 C.ar    1  UNL1        0.0372
     16 C          63.3610   83.5052   11.9314 C.ar    1  UNL1        0.0036
     17 C          63.1688   82.0177   11.9098 C.ar    1  UNL1        0.0068
     18 C          62.6445   81.3115   13.1249 C.ar    1  UNL1        0.0346
     19 BR         62.4523   79.8240   13.1033 Br      1  UNL1       -0.0490
     20 C          62.3124   82.0928   14.3616 C.ar    1  UNL1        0.0068
     21 C          62.5047   83.5803   14.3831 C.ar    1  UNL1        0.0036
     22 O          66.8703   93.8579   11.8973 O.3     1  UNL1       -0.4780
     23 C          67.3317   93.7299   10.4757 C.3     1  UNL1        0.1646
     24 C          66.7903   95.0965   10.1770 C.3     1  UNL1        0.0495
     25 C          67.8731   92.3633   10.7745 C.3     1  UNL1        0.0495
     26 C          67.7931   93.6019    9.0542 C.2     1  UNL1        0.0863
     27 O          67.5491   94.7187    8.0831 O.co2   1  UNL1       -0.5457
     28 O          68.4984   92.3570    8.6038 O.co2   1  UNL1       -0.5457
@<TRIPOS>UNITY_ATOM_ATTR
27 1
charge -1
@<TRIPOS>BOND
     1     1     2    1
     2     2     3   ar
     3     3     4   ar
     4     4     9    1
     5     9    10    1
     6    10    11   ar
     7    11    12   ar
     8    12    15    1
     9    15    16   ar
    10    16    17   ar
    11    17    18   ar
    12    18    19    1
    13    18    20   ar
    14    20    21   ar
    15    12    13   ar
    16    13    14   ar
    17     4     5   ar
    18     5     6   ar
    19     6     7    1
    20     6     8   ar
    21     8    22    1
    22    22    23    1
    23    23    24    1
    24    23    25    1
    25    23    26    1
    26    26    27   ar
    27    26    28   ar
    28     8     2   ar
    29    14    10   ar
    30    21    15   ar
@<TRIPOS>MOLECULE
*****
 28 30 0 0 0
SMALL
GASTEIGER

@<TRIPOS>ATOM
      1 C          63.5154   90.1702   15.2220 C.3     1  UNL1        0.0342
      2 C          63.5982   90.5197   13.7656 C.ar    1  UNL1        0.0115
      3 C          62.7913   89.7498   12.7626 C.ar    1  UNL1       -0.0052
      4 C          62.8741   90.0992   11.3062 C.ar    1  UNL1       -0.0165
      5 C          63.7638   91.2186   10.8529 C.ar    1  UNL1       -0.0052
      6 C          64.5707   91.9884   11.8560 C.ar    1  UNL1        0.0115
      7 C          65.4604   93.1078   11.4027 C.3     1  UNL1        0.0342
      8 C          64.4879   91.6390   13.3123 C.ar    1  UNL1        0.1306
      9 C          62.0672   89.3293   10.3031 C.3     1  UNL1        0.0755
     10 C          62.2297   87.8422   10.1923 C.ar    1  UNL1        0.1051
     11 C          62.3456   86.8802   11.3373 C.ar    1  UNL1        0.0585
     12 C          62.4923   85.4995   10.7696 C.ar    1  UNL1        0.1766
     13 O          62.4671   85.6082    9.2738 O.2     1  UNL1       -0.3537
     14 N          62.3048   87.0561    8.9170 N.ar    1  UNL1       -0.0810
     15 C          62.6386   84.2326   11.5592 C.ar    1  UNL1        0.0372
     16 C          62.9365   82.9412   10.8566 C.ar    1  UNL1        0.0036
     17 C          63.0828   81.6743   11.6462 C.ar    1  UNL1        0.0068
     18 C          62.9311   81.6987   13.1383 C.ar    1  UNL1        0.0346
     19 BR         63.0774   80.4317   13.9279 Br      1  UNL1       -0.0490
     20 C          62.6332   82.9901   13.8409 C.ar    1  UNL1        0.0068
     21 C          62.4869   84.2570   13.0513 C.ar    1  UNL1        0.0036
     22 O          65.2948   92.4089   14.3154 O.3     1  UNL1       -0.4780
     23 C          66.7901   92.4490   14.2033 C.3     1  UNL1        0.1646
     24 C          66.8355   90.9514   14.2748 C.3     1  UNL1        0.0495
     25 C          66.7446   93.9466   14.1318 C.3     1  UNL1        0.0495
     26 C          68.2853   92.4890   14.0913 C.2     1  UNL1        0.0863
     27 O          69.0926   93.2548   15.0972 O.co2   1  UNL1       -0.5457
     28 O          68.9733   91.7633   12.9732 O.co2   1  UNL1       -0.5457
@<TRIPOS>UNITY_ATOM_ATTR
27 1
charge -1
@<TRIPOS>BOND
     1     1     2    1
     2     2     3   ar
     3     3     4   ar
     4     4     9    1
     5     9    10    1
     6    10    11   ar
     7    11    12   ar
     8    12    15    1
     9    15    16   ar
    10    16    17   ar
    11    17    18   ar
    12    18    19    1
    13    18    20   ar
    14    20    21   ar
    15    12    13   ar
    16    13    14   ar
    17     4     5   ar
    18     5     6   ar
    19     6     7    1
    20     6     8   ar
    21     8    22    1
    22    22    23    1
    23    23    24    1
    24    23    25    1
    25    23    26    1
    26    26    27   ar
    27    26    28   ar
    28     8     2   ar
    29    14    10   ar
    30    21    15   ar
@<TRIPOS>MOLECULE
*****
 28 30 0 0 0
SMALL
GASTEIGER

@<TRIPOS>ATOM
      1 C          62.8852   90.8127   10.7534 C.3     1  UNL1        0.0342
      2 C          63.6404   90.6774   12.0423 C.ar    1  UNL1        0.0115
      3 C          63.4173   89.4819   12.9204 C.ar    1  UNL1       -0.0052
      4 C          64.1725   89.3466   14.2093 C.ar    1  UNL1       -0.0165
      5 C          65.1508   90.4068   14.6202 C.ar    1  UNL1       -0.0052
      6 C          65.3739   91.6023   13.7422 C.ar    1  UNL1        0.0115
      7 C          66.3522   92.6626   14.1531 C.3     1  UNL1        0.0342
      8 C          64.6187   91.7376   12.4533 C.ar    1  UNL1        0.1306
      9 C          63.9494   88.1510   15.0873 C.3     1  UNL1        0.0755
     10 C          64.3784   86.7902   14.6246 C.ar    1  UNL1        0.1051
     11 C          63.6099   85.8891   13.7041 C.ar    1  UNL1        0.0585
     12 C          64.4077   84.6335   13.5117 C.ar    1  UNL1        0.1766
     13 O          65.6693   84.7586   14.3134 O.2     1  UNL1       -0.3537
     14 N          65.6511   86.0915   15.0012 N.ar    1  UNL1       -0.0810
     15 C          64.0131   83.4591   12.6661 C.ar    1  UNL1        0.0372
     16 C          63.2772   82.3057   13.2812 C.ar    1  UNL1        0.0036
     17 C          62.8827   81.1313   12.4356 C.ar    1  UNL1        0.0068
     18 C          63.2240   81.1102   10.9751 C.ar    1  UNL1        0.0346
     19 BR         62.8294   79.9357   10.1295 Br      1  UNL1       -0.0490
     20 C          63.9599   82.2636   10.3601 C.ar    1  UNL1        0.0068
     21 C          64.3544   83.4380   11.2057 C.ar    1  UNL1        0.0036
     22 O          64.8418   92.9332   11.5752 O.3     1  UNL1       -0.4780
     23 C          66.1955   93.1844   10.9800 C.3     1  UNL1        0.1646
     24 C          66.2709   91.7505   10.5462 C.3     1  UNL1        0.0495
     25 C          66.1202   94.6183   11.4138 C.3     1  UNL1        0.0495
     26 C          67.5493   93.4356   10.3848 C.2     1  UNL1        0.0863
     27 O          68.6273   92.4002   10.5096 O.co2   1  UNL1       -0.5457
     28 O          67.8249   94.7223    9.6647 O.co2   1  UNL1       -0.5457
@<TRIPOS>UNITY_ATOM_ATTR
27 1
charge -1
@<TRIPOS>BOND
     1     1     2    1
     2     2     3   ar
     3     3     4   ar
     4     4     9    1
     5     9    10    1
     6    10    11   ar
     7    11    12   ar
     8    12    15    1
     9    15    16   ar
    10    16    17   ar
    11    17    18   ar
    12    18    19    1
    13    18    20   ar
    14    20    21   ar
    15    12    13   ar
    16    13    14   ar
    17     4     5   ar
    18     5     6   ar
    19     6     7    1
    20     6     8   ar
    21     8    22    1
    22    22    23    1
    23    23    24    1
    24    23    25    1
    25    23    26    1
    26    26    27   ar
    27    26    28   ar
    28     8     2   ar
    29    14    10   ar
    30    21    15   ar
@<TRIPOS>MOLECULE
*****
 28 30 0 0 0
SMALL
GASTEIGER

@<TRIPOS>ATOM
      1 C          62.5416   86.5488   18.3035 C.3     1  UNL1        0.0342
      2 C          63.1400   87.0750   17.0326 C.ar    1  UNL1        0.0115
      3 C          63.1697   88.5520   16.7729 C.ar    1  UNL1       -0.0052
      4 C          63.7681   89.0782   15.5021 C.ar    1  UNL1       -0.0165
      5 C          64.3368   88.1274   14.4909 C.ar    1  UNL1       -0.0052
      6 C          64.3071   86.6503   14.7506 C.ar    1  UNL1        0.0115
      7 C          64.8758   85.6994   13.7395 C.3     1  UNL1        0.0342
      8 C          63.7087   86.1242   16.0215 C.ar    1  UNL1        0.1306
      9 C          63.7978   90.5553   15.2424 C.3     1  UNL1        0.0755
     10 C          64.9284   91.1569   14.4614 C.ar    1  UNL1        0.1051
     11 C          64.7955   92.0540   13.2666 C.ar    1  UNL1        0.0585
     12 C          66.1753   92.4185   12.8049 C.ar    1  UNL1        0.1766
     13 O          67.1610   91.7468   13.7143 O.2     1  UNL1       -0.3537
     14 N          66.3904   90.9670   14.7381 N.ar    1  UNL1       -0.0810
     15 C          66.5106   93.3001   11.6385 C.ar    1  UNL1        0.0372
     16 C          67.1792   92.7197   10.4276 C.ar    1  UNL1        0.0036
     17 C          67.5145   93.6013    9.2612 C.ar    1  UNL1        0.0068
     18 C          67.1810   95.0631    9.3057 C.ar    1  UNL1        0.0346
     19 BR         67.5163   95.9447    8.1392 Br      1  UNL1       -0.0490
     20 C          66.5124   95.6434   10.5166 C.ar    1  UNL1        0.0068
     21 C          66.1772   94.7618   11.6829 C.ar    1  UNL1        0.0036
     22 O          63.6790   84.6471   16.2812 O.3     1  UNL1       -0.4780
     23 C          63.0921   83.7178   15.2604 C.3     1  UNL1        0.1646
     24 C          61.7802   84.4384   15.3587 C.3     1  UNL1        0.0495
     25 C          64.4040   82.9972   15.1621 C.3     1  UNL1        0.0495
     26 C          62.5053   82.7885   14.2396 C.2     1  UNL1        0.0863
     27 O          62.4555   83.1945   12.7965 O.co2   1  UNL1       -0.5457
     28 O          61.9681   81.4531   14.6620 O.co2   1  UNL1       -0.5457
@<TRIPOS>UNITY_ATOM_ATTR
27 1
charge -1
@<TRIPOS>BOND
     1     1     2    1
     2     2     3   ar
     3     3     4   ar
     4     4     9    1
     5     9    10    1
     6    10    11   ar
     7    11    12   ar
     8    12    15    1
     9    15    16   ar
    10    16    17   ar
    11    17    18   ar
    12    18    19    1
    13    18    20   ar
    14    20    21   ar
    15    12    13   ar
    16    13    14   ar
    17     4     5   ar
    18     5     6   ar
    19     6     7    1
    20     6     8   ar
    21     8    22    1
    22    22    23    1
    23    23    24    1
    24    23    25    1
    25    23    26    1
    26    26    27   ar
    27    26    28   ar
    28     8     2   ar
    29    14    10   ar
    30    21    15   ar
@<TRIPOS>MOLECULE
*****
 28 30 0 0 0
SMALL
GASTEIGER

@<TRIPOS>ATOM
      1 C          65.1076   84.7373   14.8057 C.3     1  UNL1        0.0342
      2 C          64.4552   85.9188   14.1511 C.ar    1  UNL1        0.0115
      3 C          64.5817   87.2812   14.7656 C.ar    1  UNL1       -0.0052
      4 C          63.9292   88.4627   14.1110 C.ar    1  UNL1       -0.0165
      5 C          63.1503   88.2817   12.8420 C.ar    1  UNL1       -0.0052
      6 C          63.0239   86.9192   12.2275 C.ar    1  UNL1        0.0115
      7 C          62.2449   86.7382   10.9584 C.3     1  UNL1        0.0342
      8 C          63.6763   85.7378   12.8821 C.ar    1  UNL1        0.1306
      9 C          64.0557   89.8252   14.7256 C.3     1  UNL1        0.0755
     10 C          65.0660   90.7975   14.1926 C.ar    1  UNL1        0.1051
     11 C          64.9440   91.5895   12.9246 C.ar    1  UNL1        0.0585
     12 C          66.1783   92.4300   12.7824 C.ar    1  UNL1        0.1766
     13 O          67.0631   92.1574   13.9625 O.2     1  UNL1       -0.3537
     14 N          66.3757   91.1484   14.8341 N.ar    1  UNL1       -0.0810
     15 C          66.4754   93.3767   11.6576 C.ar    1  UNL1        0.0372
     16 C          67.0607   92.8596   10.3769 C.ar    1  UNL1        0.0036
     17 C          67.3579   93.8064    9.2521 C.ar    1  UNL1        0.0068
     18 C          67.0698   95.2702    9.4079 C.ar    1  UNL1        0.0346
     19 BR         67.3670   96.2170    8.2830 Br      1  UNL1       -0.0490
     20 C          66.4846   95.7873   10.6886 C.ar    1  UNL1        0.0068
     21 C          66.1874   94.8405   11.8134 C.ar    1  UNL1        0.0036
     22 O          63.5498   84.3752   12.2676 O.3     1  UNL1       -0.4780
     23 C          63.1621   83.2020   13.1180 C.3     1  UNL1        0.1646
     24 C          62.0528   84.0087   13.7252 C.3     1  UNL1        0.0495
     25 C          64.2714   82.3953   12.5107 C.3     1  UNL1        0.0495
     26 C          62.7744   82.0287   13.9684 C.2     1  UNL1        0.0863
     27 O          61.3750   81.9150   14.4964 O.co2   1  UNL1       -0.5457
     28 O          63.7861   80.9692   14.2908 O.co2   1  UNL1       -0.5457
@<TRIPOS>UNITY_ATOM_ATTR
27 1
charge -1
@<TRIPOS>BOND
     1     1     2    1
     2     2     3   ar
     3     3     4   ar
     4     4     9    1
     5     9    10    1
     6    10    11   ar
     7    11    12   ar
     8    12    15    1
     9    15    16   ar
    10    16    17   ar
    11    17    18   ar
    12    18    19    1
    13    18    20   ar
    14    20    21   ar
    15    12    13   ar
    16    13    14   ar
    17     4     5   ar
    18     5     6   ar
    19     6     7    1
    20     6     8   ar
    21     8    22    1
    22    22    23    1
    23    23    24    1
    24    23    25    1
    25    23    26    1
    26    26    27   ar
    27    26    28   ar
    28     8     2   ar
    29    14    10   ar
    30    21    15   ar
@<TRIPOS>MOLECULE
*****
 28 30 0 0 0
SMALL
GASTEIGER

@<TRIPOS>ATOM
      1 C          62.8337   84.4842   14.2672 C.3     1  UNL1        0.0342
      2 C          62.7895   84.8338   12.8092 C.ar    1  UNL1        0.0115
      3 C          62.1560   86.1188   12.3650 C.ar    1  UNL1       -0.0052
      4 C          62.1117   86.4684   10.9069 C.ar    1  UNL1       -0.0165
      5 C          62.7010   85.5330    9.8932 C.ar    1  UNL1       -0.0052
      6 C          63.3344   84.2480   10.3374 C.ar    1  UNL1        0.0115
      7 C          63.9237   83.3125    9.3236 C.3     1  UNL1        0.0342
      8 C          63.3787   83.8984   11.7954 C.ar    1  UNL1        0.1306
      9 C          61.4782   87.7535   10.4627 C.3     1  UNL1        0.0755
     10 C          62.1492   89.0620   10.7587 C.ar    1  UNL1        0.1051
     11 C          63.1609   89.3098   11.8380 C.ar    1  UNL1        0.0585
     12 C          63.5633   90.7534   11.7737 C.ar    1  UNL1        0.1766
     13 O          62.8002   91.3979   10.6546 O.2     1  UNL1       -0.3537
     14 N          61.9262   90.3525   10.0273 N.ar    1  UNL1       -0.0810
     15 C          64.5546   91.4332   12.6710 C.ar    1  UNL1        0.0372
     16 C          64.7391   90.9572   14.0814 C.ar    1  UNL1        0.0036
     17 C          65.7305   91.6370   14.9787 C.ar    1  UNL1        0.0068
     18 C          66.5373   92.7927   14.4655 C.ar    1  UNL1        0.0346
     19 BR         67.5287   93.4725   15.3628 Br      1  UNL1       -0.0490
     20 C          66.3528   93.2687   13.0550 C.ar    1  UNL1        0.0068
     21 C          65.3614   92.5889   12.1578 C.ar    1  UNL1        0.0036
     22 O          64.0122   82.6133   12.2396 O.3     1  UNL1       -0.4780
     23 C          63.2220   81.6280   13.0488 C.3     1  UNL1        0.1646
     24 C          62.1714   81.5920   11.9787 C.3     1  UNL1        0.0495
     25 C          64.2726   81.6640   14.1188 C.3     1  UNL1        0.0495
     26 C          62.4317   80.6427   13.8579 C.2     1  UNL1        0.0863
     27 O          63.1325   79.5246   14.5712 O.co2   1  UNL1       -0.5457
     28 O          60.9406   80.7755   13.9536 O.co2   1  UNL1       -0.5457
@<TRIPOS>UNITY_ATOM_ATTR
27 1
charge -1
@<TRIPOS>BOND
     1     1     2    1
     2     2     3   ar
     3     3     4   ar
     4     4     9    1
     5     9    10    1
     6    10    11   ar
     7    11    12   ar
     8    12    15    1
     9    15    16   ar
    10    16    17   ar
    11    17    18   ar
    12    18    19    1
    13    18    20   ar
    14    20    21   ar
    15    12    13   ar
    16    13    14   ar
    17     4     5   ar
    18     5     6   ar
    19     6     7    1
    20     6     8   ar
    21     8    22    1
    22    22    23    1
    23    23    24    1
    24    23    25    1
    25    23    26    1
    26    26    27   ar
    27    26    28   ar
    28     8     2   ar
    29    14    10   ar
    30    21    15   ar
@<TRIPOS>MOLECULE
*****
 28 30 0 0 0
SMALL
GASTEIGER

@<TRIPOS>ATOM
      1 C          63.8974   83.3522    9.2997 C.3     1  UNL1        0.0342
      2 C          63.3112   84.2687   10.3323 C.ar    1  UNL1        0.0115
      3 C          62.6670   85.5568    9.9129 C.ar    1  UNL1       -0.0052
      4 C          62.0808   86.4733   10.9456 C.ar    1  UNL1       -0.0165
      5 C          62.1388   86.1017   12.3977 C.ar    1  UNL1       -0.0052
      6 C          62.7830   84.8137   12.8171 C.ar    1  UNL1        0.0115
      7 C          62.8410   84.4421   14.2692 C.3     1  UNL1        0.0342
      8 C          63.3692   83.8972   11.7844 C.ar    1  UNL1        0.1306
      9 C          61.4366   87.7614   10.5261 C.3     1  UNL1        0.0755
     10 C          62.1085   89.0685   10.8262 C.ar    1  UNL1        0.1051
     11 C          63.1393   89.3063   11.8897 C.ar    1  UNL1        0.0585
     12 C          63.5354   90.7521   11.8363 C.ar    1  UNL1        0.1766
     13 O          62.7494   91.4078   10.7398 O.2     1  UNL1       -0.3537
     14 N          61.8675   90.3673   10.1156 N.ar    1  UNL1       -0.0810
     15 C          64.5409   91.4241   12.7235 C.ar    1  UNL1        0.0372
     16 C          65.3484   92.5763   12.2035 C.ar    1  UNL1        0.0036
     17 C          66.3540   93.2483   13.0908 C.ar    1  UNL1        0.0068
     18 C          66.5520   92.7682   14.4980 C.ar    1  UNL1        0.0346
     19 BR         67.5576   93.4402   15.3853 Br      1  UNL1       -0.0490
     20 C          65.7445   91.6160   15.0180 C.ar    1  UNL1        0.0068
     21 C          64.7389   90.9440   14.1307 C.ar    1  UNL1        0.0036
     22 O          64.0134   82.6091   12.2039 O.3     1  UNL1       -0.4780
     23 C          63.2397   81.6133   13.0161 C.3     1  UNL1        0.1646
     24 C          62.1767   81.5765   11.9584 C.3     1  UNL1        0.0495
     25 C          64.3027   81.6500   14.0738 C.3     1  UNL1        0.0495
     26 C          62.4660   80.6174   13.8283 C.2     1  UNL1        0.0863
     27 O          60.9730   80.7262   13.9246 O.co2   1  UNL1       -0.5457
     28 O          63.1852   79.5128   14.5442 O.co2   1  UNL1       -0.5457
@<TRIPOS>UNITY_ATOM_ATTR
27 1
charge -1
@<TRIPOS>BOND
     1     1     2    1
     2     2     3   ar
     3     3     4   ar
     4     4     9    1
     5     9    10    1
     6    10    11   ar
     7    11    12   ar
     8    12    15    1
     9    15    16   ar
    10    16    17   ar
    11    17    18   ar
    12    18    19    1
    13    18    20   ar
    14    20    21   ar
    15    12    13   ar
    16    13    14   ar
    17     4     5   ar
    18     5     6   ar
    19     6     7    1
    20     6     8   ar
    21     8    22    1
    22    22    23    1
    23    23    24    1
    24    23    25    1
    25    23    26    1
    26    26    27   ar
    27    26    28   ar
    28     8     2   ar
    29    14    10   ar
    30    21    15   ar
