@<TRIPOS>MOLECULE
*****
 25 27 0 0 0
SMALL
GASTEIGER

@<TRIPOS>ATOM
      1 C          61.7984   89.2284   11.8953 C.3     1  UNL1        0.1201
      2 C          62.9276   90.2102   11.7885 C.ar    1  UNL1       -0.0023
      3 C          63.0758   91.0517   10.5557 C.ar    1  UNL1       -0.0026
      4 C          64.2049   92.0333   10.4490 C.ar    1  UNL1       -0.0003
      5 C          65.1858   92.1734   11.5751 C.ar    1  UNL1       -0.0000
      6 C          65.0377   91.3319   12.8079 C.ar    1  UNL1       -0.0003
      7 C          63.9086   90.3503   12.9146 C.ar    1  UNL1       -0.0024
      8 C          63.7604   89.5087   14.1475 C.ar    1  UNL1       -0.0003
      9 C          64.1880   88.0711   14.1300 C.ar    1  UNL1       -0.0000
     10 C          64.0399   87.2295   15.3628 C.ar    1  UNL1       -0.0000
     11 C          63.4640   87.8256   16.6131 C.ar    1  UNL1       -0.0000
     12 C          63.0363   89.2632   16.6305 C.ar    1  UNL1       -0.0000
     13 C          63.1845   90.1048   15.3976 C.ar    1  UNL1       -0.0000
     14 C          60.2418   89.1761    9.8158 C.2     1  UNL1        0.2254
     15 O          59.6948   90.5213   10.1914 O.2     1  UNL1       -0.2749
     16 N          61.2936   88.5296   10.6677 N.am    1  UNL1       -0.2757
     17 C          61.8406   87.1844   10.2921 C.3     1  UNL1        0.0927
     18 C          62.5593   86.8490    9.0189 C.3     1  UNL1        0.0383
     19 C          62.9278   85.3957    9.0637 C.3     1  UNL1        0.0704
     20 N          62.4370   84.8329   10.3646 N.3     1  UNL1       -0.2960
     21 C          61.7651   85.9384   11.1238 C.3     1  UNL1        0.0887
     22 H          63.2235   84.4709   10.9039 H       1  UNL1        0.1233
     23 C          59.8257   89.1517    7.2514 C.3     1  UNL1        0.0096
     24 C          59.7370   88.4773    8.5883 C.3     1  UNL1        0.0767
     25 C          59.1435   87.1040    8.6977 C.3     1  UNL1        0.0096
@<TRIPOS>BOND
     1    23    24    1
     2    24    25    1
     3    24    14    1
     4    14    15    2
     5    14    16   am
     6    16     1    1
     7     1     2    1
     8     2     3   ar
     9     3     4   ar
    10     4     5   ar
    11     5     6   ar
    12     6     7   ar
    13     7     8    1
    14     8     9   ar
    15     9    10   ar
    16    10    11   ar
    17    11    12   ar
    18    12    13   ar
    19    17    16    1
    20    17    18    1
    21    18    19    1
    22    19    20    1
    23    20    21    1
    24     7     2   ar
    25    13     8   ar
    26    21    17    1
    27    20    22    1
@<TRIPOS>MOLECULE
*****
 25 27 0 0 0
SMALL
GASTEIGER

@<TRIPOS>ATOM
      1 C          62.7065   88.3593   11.9313 C.3     1  UNL1        0.1201
      2 C          63.5092   89.5850   12.2528 C.ar    1  UNL1       -0.0023
      3 C          63.7181   90.6403   11.2075 C.ar    1  UNL1       -0.0026
      4 C          64.5208   91.8659   11.5291 C.ar    1  UNL1       -0.0003
      5 C          65.1146   92.0362   12.8959 C.ar    1  UNL1       -0.0000
      6 C          64.9058   90.9809   13.9412 C.ar    1  UNL1       -0.0003
      7 C          64.1031   89.7553   13.6197 C.ar    1  UNL1       -0.0024
      8 C          63.8942   88.6999   14.6650 C.ar    1  UNL1       -0.0003
      9 C          64.3539   87.2943   14.4140 C.ar    1  UNL1       -0.0000
     10 C          64.1450   86.2390   15.4592 C.ar    1  UNL1       -0.0000
     11 C          63.4764   86.5892   16.7555 C.ar    1  UNL1       -0.0000
     12 C          63.0167   87.9948   17.0066 C.ar    1  UNL1       -0.0000
     13 C          63.2256   89.0502   15.9612 C.ar    1  UNL1       -0.0000
     14 C          61.5462   87.7519    9.6874 C.2     1  UNL1        0.2254
     15 O          62.7480   86.9508    9.2828 O.2     1  UNL1       -0.2749
     16 N          61.5254   88.4562   11.0116 N.am    1  UNL1       -0.2757
     17 C          60.3236   89.2573   11.4162 C.3     1  UNL1        0.0927
     18 C          60.0694   90.6968   11.0796 C.3     1  UNL1        0.0383
     19 C          58.7536   91.0888   11.6838 C.3     1  UNL1        0.0704
     20 N          58.1946   89.8915   12.3939 N.3     1  UNL1       -0.2960
     21 C          59.1649   88.7597   12.2286 C.3     1  UNL1        0.0887
     22 H          57.2940   89.6375   11.9880 H       1  UNL1        0.1233
     23 C          60.0699   89.1377    8.0595 C.3     1  UNL1        0.0096
     24 C          60.3651   87.8488    8.7677 C.3     1  UNL1        0.0767
     25 C          59.4794   86.6568    8.5564 C.3     1  UNL1        0.0096
@<TRIPOS>BOND
     1    23    24    1
     2    24    25    1
     3    24    14    1
     4    14    15    2
     5    14    16   am
     6    16     1    1
     7     1     2    1
     8     2     3   ar
     9     3     4   ar
    10     4     5   ar
    11     5     6   ar
    12     6     7   ar
    13     7     8    1
    14     8     9   ar
    15     9    10   ar
    16    10    11   ar
    17    11    12   ar
    18    12    13   ar
    19    17    16    1
    20    17    18    1
    21    18    19    1
    22    19    20    1
    23    20    21    1
    24     7     2   ar
    25    13     8   ar
    26    21    17    1
    27    20    22    1
@<TRIPOS>MOLECULE
*****
 25 27 0 0 0
SMALL
GASTEIGER

@<TRIPOS>ATOM
      1 C          61.9862   85.5258   12.1914 C.3     1  UNL1        0.1201
      2 C          62.3854   85.3832   10.7525 C.ar    1  UNL1       -0.0023
      3 C          62.9935   84.1011   10.2664 C.ar    1  UNL1       -0.0026
      4 C          63.3926   83.9586    8.8275 C.ar    1  UNL1       -0.0003
      5 C          63.1836   85.0981    7.8748 C.ar    1  UNL1       -0.0000
      6 C          62.5755   86.3802    8.3609 C.ar    1  UNL1       -0.0003
      7 C          62.1764   86.5228    9.7997 C.ar    1  UNL1       -0.0024
      8 C          61.5682   87.8049   10.2859 C.ar    1  UNL1       -0.0003
      9 C          60.1362   87.8342   10.7314 C.ar    1  UNL1       -0.0000
     10 C          59.5280   89.1162   11.2176 C.ar    1  UNL1       -0.0000
     11 C          60.3519   90.3691   11.2583 C.ar    1  UNL1       -0.0000
     12 C          61.7839   90.3399   10.8128 C.ar    1  UNL1       -0.0000
     13 C          62.3920   89.0577   10.3266 C.ar    1  UNL1       -0.0000
     14 C          63.7988   86.0537   13.9764 C.2     1  UNL1        0.2254
     15 O          63.7556   87.5028   13.5917 O.2     1  UNL1       -0.2749
     16 N          62.9141   85.0651   13.2763 N.am    1  UNL1       -0.2757
     17 C          62.9572   83.6160   13.6610 C.3     1  UNL1        0.0927
     18 C          63.8826   82.5804   13.0941 C.3     1  UNL1        0.0383
     19 C          63.5799   81.2723   13.7629 C.3     1  UNL1        0.0704
     20 N          62.4673   81.4995   14.7431 N.3     1  UNL1       -0.2960
     21 C          62.0825   82.9479   14.6801 C.3     1  UNL1        0.0887
     22 H          62.7824   81.2657   15.6846 H       1  UNL1        0.1233
     23 C          66.1379   85.2092   14.7283 C.3     1  UNL1        0.0096
     24 C          64.7266   85.5930   15.0613 C.3     1  UNL1        0.0767
     25 C          64.2431   85.5160   16.4792 C.3     1  UNL1        0.0096
@<TRIPOS>BOND
     1    23    24    1
     2    24    25    1
     3    24    14    1
     4    14    15    2
     5    14    16   am
     6    16     1    1
     7     1     2    1
     8     2     3   ar
     9     3     4   ar
    10     4     5   ar
    11     5     6   ar
    12     6     7   ar
    13     7     8    1
    14     8     9   ar
    15     9    10   ar
    16    10    11   ar
    17    11    12   ar
    18    12    13   ar
    19    17    16    1
    20    17    18    1
    21    18    19    1
    22    19    20    1
    23    20    21    1
    24     7     2   ar
    25    13     8   ar
    26    21    17    1
    27    20    22    1
@<TRIPOS>MOLECULE
*****
 25 27 0 0 0
SMALL
GASTEIGER

@<TRIPOS>ATOM
      1 C          61.5372   85.9784   11.7763 C.3     1  UNL1        0.1201
      2 C          62.5879   84.9754   11.4015 C.ar    1  UNL1       -0.0023
      3 C          62.7080   84.5105    9.9805 C.ar    1  UNL1       -0.0026
      4 C          63.7586   83.5077    9.6057 C.ar    1  UNL1       -0.0003
      5 C          64.6890   82.9697   10.6521 C.ar    1  UNL1       -0.0000
      6 C          64.5689   83.4346   12.0731 C.ar    1  UNL1       -0.0003
      7 C          63.5183   84.4374   12.4478 C.ar    1  UNL1       -0.0024
      8 C          63.3982   84.9024   13.8689 C.ar    1  UNL1       -0.0003
      9 C          62.4533   84.2112   14.8068 C.ar    1  UNL1       -0.0000
     10 C          62.3331   84.6761   16.2278 C.ar    1  UNL1       -0.0000
     11 C          63.1578   85.8322   16.7111 C.ar    1  UNL1       -0.0000
     12 C          64.1026   86.5234   15.7732 C.ar    1  UNL1       -0.0000
     13 C          64.2228   86.0584   14.3521 C.ar    1  UNL1       -0.0000
     14 C          61.8551   88.5193   11.3372 C.2     1  UNL1        0.2254
     15 O          62.6229   88.6448   12.6197 O.2     1  UNL1       -0.2749
     16 N          61.3122   87.1860   10.9155 N.am    1  UNL1       -0.2757
     17 C          60.5444   87.0605    9.6331 C.3     1  UNL1        0.0927
     18 C          61.1007   86.6185    8.3120 C.3     1  UNL1        0.0383
     19 C          59.9856   86.6397    7.3090 C.3     1  UNL1        0.0704
     20 N          58.7401   87.0948    8.0102 N.3     1  UNL1       -0.2960
     21 C          59.0855   87.3548    9.4465 C.3     1  UNL1        0.0887
     22 H          58.0254   86.3694    7.9519 H       1  UNL1        0.1233
     23 C          60.2573   90.3204   10.3609 C.3     1  UNL1        0.0096
     24 C          61.6301   89.7270   10.4765 C.3     1  UNL1        0.0767
     25 C          62.7779   90.3412    9.7312 C.3     1  UNL1        0.0096
@<TRIPOS>BOND
     1    23    24    1
     2    24    25    1
     3    24    14    1
     4    14    15    2
     5    14    16   am
     6    16     1    1
     7     1     2    1
     8     2     3   ar
     9     3     4   ar
    10     4     5   ar
    11     5     6   ar
    12     6     7   ar
    13     7     8    1
    14     8     9   ar
    15     9    10   ar
    16    10    11   ar
    17    11    12   ar
    18    12    13   ar
    19    17    16    1
    20    17    18    1
    21    18    19    1
    22    19    20    1
    23    20    21    1
    24     7     2   ar
    25    13     8   ar
    26    21    17    1
    27    20    22    1
@<TRIPOS>MOLECULE
*****
 25 27 0 0 0
SMALL
GASTEIGER

@<TRIPOS>ATOM
      1 C          61.7125   86.5862   11.8687 C.3     1  UNL1        0.1201
      2 C          62.3170   85.8087   10.7372 C.ar    1  UNL1       -0.0023
      3 C          62.2003   86.3175    9.3310 C.ar    1  UNL1       -0.0026
      4 C          62.8048   85.5400    8.1996 C.ar    1  UNL1       -0.0003
      5 C          63.5258   84.2537    8.4744 C.ar    1  UNL1       -0.0000
      6 C          63.6425   83.7449    9.8806 C.ar    1  UNL1       -0.0003
      7 C          63.0380   84.5224   11.0120 C.ar    1  UNL1       -0.0024
      8 C          63.1547   84.0136   12.4183 C.ar    1  UNL1       -0.0003
      9 C          62.2263   82.9418   12.9074 C.ar    1  UNL1       -0.0000
     10 C          62.3429   82.4330   14.3136 C.ar    1  UNL1       -0.0000
     11 C          63.3878   82.9960   15.2308 C.ar    1  UNL1       -0.0000
     12 C          64.3162   84.0679   14.7416 C.ar    1  UNL1       -0.0000
     13 C          64.1996   84.5767   13.3353 C.ar    1  UNL1       -0.0000
     14 C          63.2005   88.5177   12.7661 C.2     1  UNL1        0.2254
     15 O          64.1254   87.5152   13.3903 O.2     1  UNL1       -0.2749
     16 N          61.9941   88.0532   12.0053 N.am    1  UNL1       -0.2757
     17 C          61.0692   89.0557   11.3811 C.3     1  UNL1        0.0927
     18 C          59.9807   89.8096   12.0860 C.3     1  UNL1        0.0383
     19 C          59.3092   90.7001   11.0830 C.3     1  UNL1        0.0704
     20 N          59.9827   90.4966    9.7582 N.3     1  UNL1       -0.2960
     21 C          61.0704   89.4803    9.9425 C.3     1  UNL1        0.0887
     22 H          60.3830   91.3772    9.4345 H       1  UNL1        0.1233
     23 C          63.5176   90.6182   14.2619 C.3     1  UNL1        0.0096
     24 C          63.4820   89.9847   12.9027 C.3     1  UNL1        0.0767
     25 C          63.7280   90.8182   11.6800 C.3     1  UNL1        0.0096
@<TRIPOS>BOND
     1    23    24    1
     2    24    25    1
     3    24    14    1
     4    14    15    2
     5    14    16   am
     6    16     1    1
     7     1     2    1
     8     2     3   ar
     9     3     4   ar
    10     4     5   ar
    11     5     6   ar
    12     6     7   ar
    13     7     8    1
    14     8     9   ar
    15     9    10   ar
    16    10    11   ar
    17    11    12   ar
    18    12    13   ar
    19    17    16    1
    20    17    18    1
    21    18    19    1
    22    19    20    1
    23    20    21    1
    24     7     2   ar
    25    13     8   ar
    26    21    17    1
    27    20    22    1
@<TRIPOS>MOLECULE
*****
 25 27 0 0 0
SMALL
GASTEIGER

@<TRIPOS>ATOM
      1 C          62.4013   86.5172   11.1982 C.3     1  UNL1        0.1201
      2 C          63.0813   87.1764   12.3615 C.ar    1  UNL1       -0.0023
      3 C          63.2551   88.6661   12.3829 C.ar    1  UNL1       -0.0026
      4 C          63.9352   89.3252   13.5461 C.ar    1  UNL1       -0.0003
      5 C          64.4414   88.4946   14.6879 C.ar    1  UNL1       -0.0000
      6 C          64.2676   87.0049   14.6666 C.ar    1  UNL1       -0.0003
      7 C          63.5876   86.3458   13.5033 C.ar    1  UNL1       -0.0024
      8 C          63.4137   84.8560   13.4819 C.ar    1  UNL1       -0.0003
      9 C          62.4480   84.2000   14.4237 C.ar    1  UNL1       -0.0000
     10 C          62.2741   82.7103   14.4024 C.ar    1  UNL1       -0.0000
     11 C          63.0660   81.8765   13.4391 C.ar    1  UNL1       -0.0000
     12 C          64.0317   82.5325   12.4973 C.ar    1  UNL1       -0.0000
     13 C          64.2056   84.0223   12.5187 C.ar    1  UNL1       -0.0000
     14 C          61.0096   86.8404    9.0282 C.2     1  UNL1        0.2254
     15 O          61.7295   85.6870    8.3947 O.2     1  UNL1       -0.2749
     16 N          61.3454   87.2555   10.4300 N.am    1  UNL1       -0.2757
     17 C          60.6255   88.4089   11.0636 C.3     1  UNL1        0.0927
     18 C          59.4290   88.3144   11.9633 C.3     1  UNL1        0.0383
     19 C          59.0396   89.7064   12.3644 C.3     1  UNL1        0.0704
     20 N          59.9955   90.6611   11.7125 N.3     1  UNL1       -0.2960
     21 C          60.9756   89.8591   10.9086 C.3     1  UNL1        0.0887
     22 H          60.4896   91.1973   12.4259 H       1  UNL1        0.1233
     23 C          58.6873   86.8792    7.8641 C.3     1  UNL1        0.0096
     24 C          59.9537   87.5786    8.2601 C.3     1  UNL1        0.0767
     25 C          60.1643   89.0165    7.8879 C.3     1  UNL1        0.0096
@<TRIPOS>BOND
     1    23    24    1
     2    24    25    1
     3    24    14    1
     4    14    15    2
     5    14    16   am
     6    16     1    1
     7     1     2    1
     8     2     3   ar
     9     3     4   ar
    10     4     5   ar
    11     5     6   ar
    12     6     7   ar
    13     7     8    1
    14     8     9   ar
    15     9    10   ar
    16    10    11   ar
    17    11    12   ar
    18    12    13   ar
    19    17    16    1
    20    17    18    1
    21    18    19    1
    22    19    20    1
    23    20    21    1
    24     7     2   ar
    25    13     8   ar
    26    21    17    1
    27    20    22    1
@<TRIPOS>MOLECULE
*****
 25 27 0 0 0
SMALL
GASTEIGER

@<TRIPOS>ATOM
      1 C          62.9167   85.0065   11.6778 C.3     1  UNL1        0.1201
      2 C          62.9874   86.4711   11.9941 C.ar    1  UNL1       -0.0023
      3 C          63.7543   86.9432   13.1937 C.ar    1  UNL1       -0.0026
      4 C          63.8249   88.4077   13.5100 C.ar    1  UNL1       -0.0003
      5 C          63.1286   89.4002   12.6267 C.ar    1  UNL1       -0.0000
      6 C          62.3617   88.9282   11.4272 C.ar    1  UNL1       -0.0003
      7 C          62.2911   87.4636   11.1109 C.ar    1  UNL1       -0.0024
      8 C          61.5241   86.9915    9.9113 C.ar    1  UNL1       -0.0003
      9 C          62.1975   86.1356    8.8798 C.ar    1  UNL1       -0.0000
     10 C          61.4306   85.6635    7.6803 C.ar    1  UNL1       -0.0000
     11 C          59.9903   86.0473    7.5121 C.ar    1  UNL1       -0.0000
     12 C          59.3169   86.9032    8.5436 C.ar    1  UNL1       -0.0000
     13 C          60.0839   87.3753    9.7432 C.ar    1  UNL1       -0.0000
     14 C          62.6855   82.5434   12.4713 C.2     1  UNL1        0.2254
     15 O          62.6414   82.0874   11.0430 O.2     1  UNL1       -0.2749
     16 N          62.8232   84.0030   12.7887 N.am    1  UNL1       -0.2757
     17 C          62.8674   84.4589   14.2170 C.3     1  UNL1        0.0927
     18 C          64.1064   84.7202   15.0212 C.3     1  UNL1        0.0383
     19 C          63.6851   85.1564   16.3932 C.3     1  UNL1        0.0704
     20 N          62.1857   85.1648   16.4368 N.3     1  UNL1       -0.2960
     21 C          61.6804   84.7337   15.0919 C.3     1  UNL1        0.0887
     22 H          61.8507   86.1049   16.6474 H       1  UNL1        0.1233
     23 C          61.2529   81.1684   14.1466 C.3     1  UNL1        0.0096
     24 C          62.5921   81.5398   13.5822 C.3     1  UNL1        0.0767
     25 C          63.8378   80.9077   14.1286 C.3     1  UNL1        0.0096
@<TRIPOS>BOND
     1    23    24    1
     2    24    25    1
     3    24    14    1
     4    14    15    2
     5    14    16   am
     6    16     1    1
     7     1     2    1
     8     2     3   ar
     9     3     4   ar
    10     4     5   ar
    11     5     6   ar
    12     6     7   ar
    13     7     8    1
    14     8     9   ar
    15     9    10   ar
    16    10    11   ar
    17    11    12   ar
    18    12    13   ar
    19    17    16    1
    20    17    18    1
    21    18    19    1
    22    19    20    1
    23    20    21    1
    24     7     2   ar
    25    13     8   ar
    26    21    17    1
    27    20    22    1
@<TRIPOS>MOLECULE
*****
 25 27 0 0 0
SMALL
GASTEIGER

@<TRIPOS>ATOM
      1 C          64.3433   86.5768   13.6464 C.3     1  UNL1        0.1201
      2 C          63.8300   86.9419   15.0078 C.ar    1  UNL1       -0.0023
      3 C          63.4893   85.8648   15.9945 C.ar    1  UNL1       -0.0026
      4 C          62.9761   86.2298   17.3559 C.ar    1  UNL1       -0.0003
      5 C          62.8036   87.6720   17.7305 C.ar    1  UNL1       -0.0000
      6 C          63.1443   88.7491   16.7437 C.ar    1  UNL1       -0.0003
      7 C          63.6575   88.3841   15.3824 C.ar    1  UNL1       -0.0024
      8 C          63.9982   89.4612   14.3956 C.ar    1  UNL1       -0.0003
      9 C          65.1383   90.3965   14.6701 C.ar    1  UNL1       -0.0000
     10 C          65.4791   91.4736   13.6834 C.ar    1  UNL1       -0.0000
     11 C          64.6797   91.6155   12.4220 C.ar    1  UNL1       -0.0000
     12 C          63.5396   90.6802   12.1475 C.ar    1  UNL1       -0.0000
     13 C          63.1989   89.6030   13.1343 C.ar    1  UNL1       -0.0000
     14 C          64.0989   84.0376   13.1537 C.2     1  UNL1        0.2254
     15 O          65.1342   83.7357   14.1963 O.2     1  UNL1       -0.2749
     16 N          63.7034   85.4582   12.8787 N.am    1  UNL1       -0.2757
     17 C          62.6681   85.7602   11.8362 C.3     1  UNL1        0.0927
     18 C          62.7208   85.3461   10.3954 C.3     1  UNL1        0.0383
     19 C          61.4836   85.8592    9.7201 C.3     1  UNL1        0.0704
     20 N          60.6663   86.5904   10.7435 N.3     1  UNL1       -0.2960
     21 C          61.3984   86.5292   12.0513 C.3     1  UNL1        0.0887
     22 H          59.7523   86.1475   10.8374 H       1  UNL1        0.1233
     23 C          62.2122   82.2685   12.9077 C.3     1  UNL1        0.0096
     24 C          63.4590   82.9190   12.3861 C.3     1  UNL1        0.0767
     25 C          64.0661   82.4509   11.0967 C.3     1  UNL1        0.0096
@<TRIPOS>BOND
     1    23    24    1
     2    24    25    1
     3    24    14    1
     4    14    15    2
     5    14    16   am
     6    16     1    1
     7     1     2    1
     8     2     3   ar
     9     3     4   ar
    10     4     5   ar
    11     5     6   ar
    12     6     7   ar
    13     7     8    1
    14     8     9   ar
    15     9    10   ar
    16    10    11   ar
    17    11    12   ar
    18    12    13   ar
    19    17    16    1
    20    17    18    1
    21    18    19    1
    22    19    20    1
    23    20    21    1
    24     7     2   ar
    25    13     8   ar
    26    21    17    1
    27    20    22    1
@<TRIPOS>MOLECULE
*****
 25 27 0 0 0
SMALL
GASTEIGER

@<TRIPOS>ATOM
      1 C          64.6888   92.0330   12.4769 C.3     1  UNL1        0.1201
      2 C          65.8488   92.0541   13.4277 C.ar    1  UNL1       -0.0023
      3 C          65.6390   91.7177   14.8743 C.ar    1  UNL1       -0.0026
      4 C          66.7990   91.7388   15.8250 C.ar    1  UNL1       -0.0003
      5 C          68.1688   92.0962   15.3291 C.ar    1  UNL1       -0.0000
      6 C          68.3786   92.4326   13.8825 C.ar    1  UNL1       -0.0003
      7 C          67.2186   92.4115   12.9318 C.ar    1  UNL1       -0.0024
      8 C          67.4284   92.7479   11.4851 C.ar    1  UNL1       -0.0003
      9 C          68.2764   91.8596   10.6239 C.ar    1  UNL1       -0.0000
     10 C          68.4862   92.1959    9.1772 C.ar    1  UNL1       -0.0000
     11 C          67.8479   93.4206    8.5917 C.ar    1  UNL1       -0.0000
     12 C          66.9999   94.3090    9.4529 C.ar    1  UNL1       -0.0000
     13 C          66.7901   93.9726   10.8996 C.ar    1  UNL1       -0.0000
     14 C          62.8890   90.6049   11.2639 C.2     1  UNL1        0.2254
     15 O          62.9662   91.5170   10.0755 O.2     1  UNL1       -0.2749
     16 N          63.7503   90.8630   12.4646 N.am    1  UNL1       -0.2757
     17 C          63.6731   89.9509   13.6529 C.3     1  UNL1        0.0927
     18 C          64.2995   88.5925   13.7639 C.3     1  UNL1        0.0383
     19 C          63.9695   88.0391   15.1185 C.3     1  UNL1        0.0704
     20 N          63.1391   89.0556   15.8447 N.3     1  UNL1       -0.2960
     21 C          62.9560   90.2371   14.9389 C.3     1  UNL1        0.0887
     22 H          63.6152   89.3450   16.6991 H       1  UNL1        0.1233
     23 C          62.3921   88.1253   10.6687 C.3     1  UNL1        0.0096
     24 C          61.9505   89.4349   11.2516 C.3     1  UNL1        0.0767
     25 C          60.5703   89.5745   11.8222 C.3     1  UNL1        0.0096
@<TRIPOS>BOND
     1    23    24    1
     2    24    25    1
     3    24    14    1
     4    14    15    2
     5    14    16   am
     6    16     1    1
     7     1     2    1
     8     2     3   ar
     9     3     4   ar
    10     4     5   ar
    11     5     6   ar
    12     6     7   ar
    13     7     8    1
    14     8     9   ar
    15     9    10   ar
    16    10    11   ar
    17    11    12   ar
    18    12    13   ar
    19    17    16    1
    20    17    18    1
    21    18    19    1
    22    19    20    1
    23    20    21    1
    24     7     2   ar
    25    13     8   ar
    26    21    17    1
    27    20    22    1
