@<TRIPOS>MOLECULE
*****
 35 39 0 0 0
SMALL
GASTEIGER

@<TRIPOS>ATOM
      1 C          63.6312   82.7888   12.5108 C.2     1  UNL1        0.4048
      2 O          64.6786   81.8919   11.9205 O.2     1  UNL1       -0.2262
      3 N          63.0620   83.9135   11.6978 N.am    1  UNL1       -0.2443
      4 C          63.4401   84.2622   10.2888 C.3     1  UNL1        0.0985
      5 C          62.6265   85.4513    9.8712 C.3     1  UNL1        0.0429
      6 C          61.7457   85.8375   11.0223 C.3     1  UNL1        0.0920
      7 C          62.0148   84.8871   12.1511 C.3     1  UNL1        0.1162
      8 N          60.7674   86.9744   11.0411 N.pl3   1  UNL1       -0.3180
      9 H          60.4545   87.3404   11.8999 H       1  UNL1        0.1482
     10 C          60.2659   87.5539    9.7516 C.ar    1  UNL1        0.1324
     11 N          59.4997   86.6939    8.7908 N.ar    1  UNL1       -0.2294
     12 C          58.9982   87.2732    7.5013 C.ar    1  UNL1        0.1003
     13 C          59.2629   88.7127    7.1727 C.ar    1  UNL1        0.0207
     14 C          60.0291   89.5726    8.1336 C.ar    1  UNL1        0.0083
     15 C          60.5307   88.9932    9.4231 C.ar    1  UNL1        0.1027
     16 C          61.2969   89.8532   10.3840 C.3     1  UNL1        0.4212
     17 F          62.0631   90.7133   11.3449 F       1  UNL1       -0.1658
     18 F          60.0133   90.4702   10.8552 F       1  UNL1       -0.1658
     19 F          62.5803   89.2363    9.9127 F       1  UNL1       -0.1658
     20 O          63.1529   82.5608   13.9141 O.3     1  UNL1       -0.4383
     21 C          63.9330   83.6052   14.2452 C.3     1  UNL1        0.0688
     22 C          63.1519   84.3607   15.2791 C.3     1  UNL1        0.0086
     23 C          63.7227   85.6075   15.8872 C.3     1  UNL1        0.0007
     24 C          65.0745   86.0987   15.4613 C.3     1  UNL1        0.0036
     25 C          65.8555   85.3432   14.4274 C.3     1  UNL1        0.0407
     26 C          65.2847   84.0965   13.8193 C.3     1  UNL1        0.0122
     27 C          63.0315   83.7169   14.8622 C.3     1  UNL1        0.1702
     28 C          61.8002   83.8695   15.7050 C.3     1  UNL1        0.0407
     29 C          62.3709   85.1162   16.3131 C.3     1  UNL1        0.0036
     30 C          62.5812   83.1140   14.6711 C.3     1  UNL1        0.0122
     31 N          63.9391   81.0196   13.9904 N.am    1  UNL1       -0.3288
     32 C          63.3622   82.3584   13.6370 C.2     1  UNL1        0.2184
     33 O          62.2496   82.0865   12.6685 O.2     1  UNL1       -0.2754
     34 H          63.5646   80.2013   13.5912 H       1  UNL1        0.1449
     35 H          64.6924   80.9593   14.6214 H       1  UNL1        0.1449
@<TRIPOS>BOND
     1    31    32   am
     2    32    33    2
     3    21    32    1
     4    21    22    1
     5    22    23    1
     6    23    24    1
     7    24    25    1
     8    25    26    1
     9    25    27    1
    10    27    20    1
    11    20     1    1
    12     1     2    2
    13     1     3   am
    14     3     4    1
    15     4     5    1
    16     5     6    1
    17     6     8    1
    18     8    10    1
    19    10    11   ar
    20    11    12   ar
    21    12    13   ar
    22    13    14   ar
    23    14    15   ar
    24    15    16    1
    25    16    17    1
    26    16    18    1
    27    16    19    1
    28     6     7    1
    29    27    28    1
    30    28    29    1
    31    28    30    1
    32    26    21    1
    33     7     3    1
    34    30    21    1
    35    29    23    1
    36    15    10   ar
    37    31    34    1
    38    31    35    1
    39     8     9    1
@<TRIPOS>MOLECULE
*****
 35 39 0 0 0
SMALL
GASTEIGER

@<TRIPOS>ATOM
      1 C          63.6648   90.1526   15.5193 C.2     1  UNL1        0.4048
      2 O          63.2152   90.7410   16.8237 O.2     1  UNL1       -0.2262
      3 N          63.8082   88.6663   15.3768 N.am    1  UNL1       -0.2443
      4 C          63.5396   87.6481   16.4451 C.3     1  UNL1        0.0985
      5 C          63.8108   86.2897   15.8696 C.3     1  UNL1        0.0429
      6 C          64.2471   86.4683   14.4456 C.3     1  UNL1        0.0920
      7 C          64.2455   87.9371   14.1411 C.3     1  UNL1        0.1162
      8 N          64.6196   85.3709   13.4933 N.pl3   1  UNL1       -0.3180
      9 H          65.3786   85.4900   12.8776 H       1  UNL1        0.1482
     10 C          63.8358   84.0920   13.4791 C.ar    1  UNL1        0.1324
     11 N          63.9218   83.1467   14.6405 N.ar    1  UNL1       -0.2294
     12 C          63.1381   81.8679   14.6263 C.ar    1  UNL1        0.1003
     13 C          62.2683   81.5344   13.4506 C.ar    1  UNL1        0.0207
     14 C          62.1823   82.4797   12.2892 C.ar    1  UNL1        0.0083
     15 C          62.9661   83.7586   12.3034 C.ar    1  UNL1        0.1027
     16 C          62.8801   84.7039   11.1420 C.3     1  UNL1        0.4212
     17 F          62.7941   85.6492    9.9805 F       1  UNL1       -0.1658
     18 F          63.9270   83.9099   10.4183 F       1  UNL1       -0.1658
     19 F          61.8333   85.4978   11.8657 F       1  UNL1       -0.1658
     20 O          63.9709   91.0504   14.3574 O.3     1  UNL1       -0.4383
     21 C          64.6207   91.4704   13.2573 C.3     1  UNL1        0.0688
     22 C          66.0512   91.6176   13.6839 C.3     1  UNL1        0.0086
     23 C          67.0843   92.0770   12.6982 C.3     1  UNL1        0.0007
     24 C          66.6868   92.3893   11.2859 C.3     1  UNL1        0.0036
     25 C          65.2563   92.2421   10.8593 C.3     1  UNL1        0.0407
     26 C          64.2233   91.7827   11.8451 C.3     1  UNL1        0.0122
     27 C          65.3933   91.4006   14.0346 C.3     1  UNL1        0.1702
     28 C          66.4486   91.3053   15.0962 C.3     1  UNL1        0.0407
     29 C          67.4817   91.7648   14.1105 C.3     1  UNL1        0.0036
     30 C          65.0182   91.1582   14.6696 C.3     1  UNL1        0.0122
     31 N          62.4925   90.0844   13.8048 N.am    1  UNL1       -0.3288
     32 C          63.5876   91.0110   14.2431 C.2     1  UNL1        0.2184
     33 O          63.3505   91.2707   15.7012 O.2     1  UNL1       -0.2754
     34 H          61.8145   89.7828   14.4517 H       1  UNL1        0.1449
     35 H          62.4518   89.7777   12.8701 H       1  UNL1        0.1449
@<TRIPOS>BOND
     1    31    32   am
     2    32    33    2
     3    21    32    1
     4    21    22    1
     5    22    23    1
     6    23    24    1
     7    24    25    1
     8    25    26    1
     9    25    27    1
    10    27    20    1
    11    20     1    1
    12     1     2    2
    13     1     3   am
    14     3     4    1
    15     4     5    1
    16     5     6    1
    17     6     8    1
    18     8    10    1
    19    10    11   ar
    20    11    12   ar
    21    12    13   ar
    22    13    14   ar
    23    14    15   ar
    24    15    16    1
    25    16    17    1
    26    16    18    1
    27    16    19    1
    28     6     7    1
    29    27    28    1
    30    28    29    1
    31    28    30    1
    32    26    21    1
    33     7     3    1
    34    30    21    1
    35    29    23    1
    36    15    10   ar
    37    31    34    1
    38    31    35    1
    39     8     9    1
@<TRIPOS>MOLECULE
*****
 35 39 0 0 0
SMALL
GASTEIGER

@<TRIPOS>ATOM
      1 C          61.0857   88.4022   10.0722 C.2     1  UNL1        0.4048
      2 O          60.4358   89.4298    9.1937 O.2     1  UNL1       -0.2262
      3 N          62.0589   88.8282   11.1311 N.am    1  UNL1       -0.2443
      4 C          62.4785   90.2374   11.4275 C.3     1  UNL1        0.0985
      5 C          63.4624   90.1999   12.5592 C.3     1  UNL1        0.0429
      6 C          63.6509   88.7674   12.9622 C.3     1  UNL1        0.0920
      7 C          62.7835   87.9196   12.0796 C.3     1  UNL1        0.1162
      8 N          64.5490   88.2700   14.0557 N.pl3   1  UNL1       -0.3180
      9 H          65.5261   88.2893   13.9372 H       1  UNL1        0.1482
     10 C          63.9584   87.7431   15.3300 C.ar    1  UNL1        0.1324
     11 N          63.2986   88.6825   16.2954 N.ar    1  UNL1       -0.2294
     12 C          62.7080   88.1557   17.5696 C.ar    1  UNL1        0.1003
     13 C          62.7771   86.6895   17.8783 C.ar    1  UNL1        0.0207
     14 C          63.4369   85.7501   16.9128 C.ar    1  UNL1        0.0083
     15 C          64.0275   86.2769   15.6386 C.ar    1  UNL1        0.1027
     16 C          64.6873   85.3375   14.6731 C.3     1  UNL1        0.4212
     17 F          65.3472   84.3981   13.7076 F       1  UNL1       -0.1658
     18 F          66.0168   85.9652   14.9710 F       1  UNL1       -0.1658
     19 F          63.3579   84.7099   14.3753 F       1  UNL1       -0.1658
     20 O          60.7623   86.9487    9.8917 O.3     1  UNL1       -0.4383
     21 C          61.5671   85.9414   10.2743 C.3     1  UNL1        0.0688
     22 C          62.2613   85.5012    9.0197 C.3     1  UNL1        0.0086
     23 C          63.2521   84.3760    9.0661 C.3     1  UNL1        0.0007
     24 C          63.5488   83.6911   10.3672 C.3     1  UNL1        0.0036
     25 C          62.8546   84.1314   11.6219 C.3     1  UNL1        0.0407
     26 C          61.8638   85.2565   11.5755 C.3     1  UNL1        0.0122
     27 C          61.7351   86.0448    9.1941 C.3     1  UNL1        0.1702
     28 C          61.9646   86.1860    7.7185 C.3     1  UNL1        0.0407
     29 C          62.9555   85.0609    7.7650 C.3     1  UNL1        0.0036
     30 C          61.2705   86.6263    8.9732 C.3     1  UNL1        0.0122
     31 N          60.0465   87.6526   11.5031 N.am    1  UNL1       -0.3288
     32 C          60.5763   87.0666   10.2279 C.2     1  UNL1        0.2184
     33 O          59.9165   87.8289    9.1173 O.2     1  UNL1       -0.2754
     34 H          59.3962   88.3911   11.4726 H       1  UNL1        0.1449
     35 H          60.3492   87.2986   12.3705 H       1  UNL1        0.1449
@<TRIPOS>BOND
     1    31    32   am
     2    32    33    2
     3    21    32    1
     4    21    22    1
     5    22    23    1
     6    23    24    1
     7    24    25    1
     8    25    26    1
     9    25    27    1
    10    27    20    1
    11    20     1    1
    12     1     2    2
    13     1     3   am
    14     3     4    1
    15     4     5    1
    16     5     6    1
    17     6     8    1
    18     8    10    1
    19    10    11   ar
    20    11    12   ar
    21    12    13   ar
    22    13    14   ar
    23    14    15   ar
    24    15    16    1
    25    16    17    1
    26    16    18    1
    27    16    19    1
    28     6     7    1
    29    27    28    1
    30    28    29    1
    31    28    30    1
    32    26    21    1
    33     7     3    1
    34    30    21    1
    35    29    23    1
    36    15    10   ar
    37    31    34    1
    38    31    35    1
    39     8     9    1
@<TRIPOS>MOLECULE
*****
 35 39 0 0 0
SMALL
GASTEIGER

@<TRIPOS>ATOM
      1 C          60.7739   89.2551   10.6618 C.2     1  UNL1        0.4048
      2 O          60.0518   90.1014    9.6556 O.2     1  UNL1       -0.2262
      3 N          61.3099   87.9115   10.2651 N.am    1  UNL1       -0.2443
      4 C          61.2008   87.2847    8.9068 C.3     1  UNL1        0.0985
      5 C          61.8727   85.9446    8.9593 C.3     1  UNL1        0.0429
      6 C          62.3969   85.7431   10.3502 C.3     1  UNL1        0.0920
      7 C          62.0491   86.9588   11.1572 C.3     1  UNL1        0.1162
      8 N          63.1388   84.5377   10.8469 N.pl3   1  UNL1       -0.3180
      9 H          63.5029   83.8852   10.2059 H       1  UNL1        0.1482
     10 C          63.3258   84.3265   12.3201 C.ar    1  UNL1        0.1324
     11 N          63.5297   85.5040   13.2267 N.ar    1  UNL1       -0.2294
     12 C          63.7167   85.2929   14.6998 C.ar    1  UNL1        0.1003
     13 C          63.6998   83.9042   15.2665 C.ar    1  UNL1        0.0207
     14 C          63.4958   82.7266   14.3600 C.ar    1  UNL1        0.0083
     15 C          63.3088   82.9378   12.8867 C.ar    1  UNL1        0.1027
     16 C          63.1049   81.7603   11.9802 C.3     1  UNL1        0.4212
     17 F          62.9009   80.5827   11.0736 F       1  UNL1       -0.1658
     18 F          61.7310   81.5609   12.5483 F       1  UNL1       -0.1658
     19 F          64.4787   81.9598   11.4121 F       1  UNL1       -0.1658
     20 O          60.9599   89.7525   12.0646 O.3     1  UNL1       -0.4383
     21 C          62.0100   90.4015   11.5308 C.3     1  UNL1        0.0688
     22 C          63.0484   90.4160   12.6132 C.3     1  UNL1        0.0086
     23 C          64.3767   91.0688   12.3694 C.3     1  UNL1        0.0007
     24 C          64.6666   91.7070   11.0433 C.3     1  UNL1        0.0036
     25 C          63.6282   91.6925    9.9610 C.3     1  UNL1        0.0407
     26 C          62.2999   91.0397   10.2047 C.3     1  UNL1        0.0122
     27 C          62.3263   90.1378   12.5488 C.3     1  UNL1        0.1702
     28 C          62.7585   89.7777   13.9393 C.3     1  UNL1        0.0407
     29 C          64.0867   90.4305   13.6955 C.3     1  UNL1        0.0036
     30 C          61.7201   89.7632   12.8569 C.3     1  UNL1        0.0122
     31 N          59.4330   90.5791   11.8099 N.am    1  UNL1       -0.3288
     32 C          60.6816   89.7486   11.7745 C.2     1  UNL1        0.2184
     33 O          60.2443   88.3342   12.0157 O.2     1  UNL1       -0.2754
     34 H          58.5612   90.1507   11.9699 H       1  UNL1        0.1449
     35 H          59.4854   91.5527   11.6732 H       1  UNL1        0.1449
@<TRIPOS>BOND
     1    31    32   am
     2    32    33    2
     3    21    32    1
     4    21    22    1
     5    22    23    1
     6    23    24    1
     7    24    25    1
     8    25    26    1
     9    25    27    1
    10    27    20    1
    11    20     1    1
    12     1     2    2
    13     1     3   am
    14     3     4    1
    15     4     5    1
    16     5     6    1
    17     6     8    1
    18     8    10    1
    19    10    11   ar
    20    11    12   ar
    21    12    13   ar
    22    13    14   ar
    23    14    15   ar
    24    15    16    1
    25    16    17    1
    26    16    18    1
    27    16    19    1
    28     6     7    1
    29    27    28    1
    30    28    29    1
    31    28    30    1
    32    26    21    1
    33     7     3    1
    34    30    21    1
    35    29    23    1
    36    15    10   ar
    37    31    34    1
    38    31    35    1
    39     8     9    1
@<TRIPOS>MOLECULE
*****
 35 39 0 0 0
SMALL
GASTEIGER

@<TRIPOS>ATOM
      1 C          60.9944   89.0645   10.3967 C.2     1  UNL1        0.4048
      2 O          60.1107   89.3724    9.2245 O.2     1  UNL1       -0.2262
      3 N          61.5352   87.6780   10.5846 N.am    1  UNL1       -0.2443
      4 C          61.2800   86.5031    9.6878 C.3     1  UNL1        0.0985
      5 C          62.0132   85.3219   10.2512 C.3     1  UNL1        0.0429
      6 C          62.7214   85.7669   11.4964 C.3     1  UNL1        0.0920
      7 C          62.4260   87.2231   11.7024 C.3     1  UNL1        0.1162
      8 N          63.5752   84.9068   12.3803 N.pl3   1  UNL1       -0.3180
      9 H          64.3999   85.2723   12.7747 H       1  UNL1        0.1482
     10 C          63.1725   83.4899   12.6633 C.ar    1  UNL1        0.1324
     11 N          63.1485   82.4811   11.5534 N.ar    1  UNL1       -0.2294
     12 C          62.7458   81.0642   11.8364 C.ar    1  UNL1        0.1003
     13 C          62.3672   80.6560   13.2292 C.ar    1  UNL1        0.0207
     14 C          62.3912   81.6648   14.3390 C.ar    1  UNL1        0.0083
     15 C          62.7939   83.0818   14.0561 C.ar    1  UNL1        0.1027
     16 C          62.8179   84.0905   15.1659 C.3     1  UNL1        0.4212
     17 F          62.8418   85.0994   16.2758 F       1  UNL1       -0.1658
     18 F          61.3709   84.3985   14.9173 F       1  UNL1       -0.1658
     19 F          64.2647   83.7826   15.4145 F       1  UNL1       -0.1658
     20 O          61.3374   90.1431   11.3810 O.3     1  UNL1       -0.4383
     21 C          62.3276   90.3073   12.2762 C.3     1  UNL1        0.0688
     22 C          63.4029   91.0447   11.5347 C.3     1  UNL1        0.0086
     23 C          64.6812   91.4065   12.2311 C.3     1  UNL1        0.0007
     24 C          64.8842   91.0308   13.6691 C.3     1  UNL1        0.0036
     25 C          63.8089   90.2934   14.4106 C.3     1  UNL1        0.0407
     26 C          62.5306   89.9316   13.7141 C.3     1  UNL1        0.0122
     27 C          62.6963   90.7777   11.3550 C.3     1  UNL1        0.1702
     28 C          63.1999   91.4204   10.0968 C.3     1  UNL1        0.0407
     29 C          64.4782   91.7822   10.7932 C.3     1  UNL1        0.0036
     30 C          62.1246   90.6830   10.8383 C.3     1  UNL1        0.0122
     31 N          60.1361   88.9155   12.1757 N.am    1  UNL1       -0.3288
     32 C          61.0493   89.9455   11.5798 C.2     1  UNL1        0.2184
     33 O          60.3889   90.3994   10.3118 O.2     1  UNL1       -0.2754
     34 H          59.2971   88.6780   11.7186 H       1  UNL1        0.1449
     35 H          60.3757   88.4769   13.0239 H       1  UNL1        0.1449
@<TRIPOS>BOND
     1    31    32   am
     2    32    33    2
     3    21    32    1
     4    21    22    1
     5    22    23    1
     6    23    24    1
     7    24    25    1
     8    25    26    1
     9    25    27    1
    10    27    20    1
    11    20     1    1
    12     1     2    2
    13     1     3   am
    14     3     4    1
    15     4     5    1
    16     5     6    1
    17     6     8    1
    18     8    10    1
    19    10    11   ar
    20    11    12   ar
    21    12    13   ar
    22    13    14   ar
    23    14    15   ar
    24    15    16    1
    25    16    17    1
    26    16    18    1
    27    16    19    1
    28     6     7    1
    29    27    28    1
    30    28    29    1
    31    28    30    1
    32    26    21    1
    33     7     3    1
    34    30    21    1
    35    29    23    1
    36    15    10   ar
    37    31    34    1
    38    31    35    1
    39     8     9    1
@<TRIPOS>MOLECULE
*****
 35 39 0 0 0
SMALL
GASTEIGER

@<TRIPOS>ATOM
      1 C          61.1919   87.7777    9.6823 C.2     1  UNL1        0.4048
      2 O          60.9227   87.6324    8.2139 O.2     1  UNL1       -0.2262
      3 N          61.8179   89.0349   10.2093 N.am    1  UNL1       -0.2443
      4 C          62.2268   90.2253    9.3933 C.3     1  UNL1        0.0985
      5 C          62.8065   91.2485   10.3245 C.3     1  UNL1        0.0429
      6 C          62.7559   90.6905   11.7159 C.3     1  UNL1        0.0920
      7 C          62.1449   89.3224   11.6447 C.3     1  UNL1        0.1162
      8 N          63.2326   91.3795   12.9600 N.pl3   1  UNL1       -0.3180
      9 H          62.5809   91.7180   13.6157 H       1  UNL1        0.1482
     10 C          64.7023   91.5527   13.2053 C.ar    1  UNL1        0.1324
     11 N          65.5352   92.3446   12.2415 N.ar    1  UNL1       -0.2294
     12 C          67.0048   92.5179   12.4867 C.ar    1  UNL1        0.1003
     13 C          67.6415   91.8992   13.6957 C.ar    1  UNL1        0.0207
     14 C          66.8085   91.1072   14.6595 C.ar    1  UNL1        0.0083
     15 C          65.3389   90.9340   14.4143 C.ar    1  UNL1        0.1027
     16 C          64.5059   90.1421   15.3781 C.3     1  UNL1        0.4212
     17 F          63.6729   89.3501   16.3420 F       1  UNL1       -0.1658
     18 F          64.2616   91.3823   16.1859 F       1  UNL1       -0.1658
     19 F          64.7502   88.9020   14.5704 F       1  UNL1       -0.1658
     20 O          60.8351   86.6659   10.6238 O.3     1  UNL1       -0.4383
     21 C          61.7238   85.9099    9.9549 C.3     1  UNL1        0.0688
     22 C          62.4354   85.1197   11.0127 C.3     1  UNL1        0.0086
     23 C          63.5148   84.1521   10.6273 C.3     1  UNL1        0.0007
     24 C          63.8826   83.9747    9.1839 C.3     1  UNL1        0.0036
     25 C          63.1710   84.7649    8.1260 C.3     1  UNL1        0.0407
     26 C          62.0916   85.7325    8.5115 C.3     1  UNL1        0.0122
     27 C          61.8691   85.6509   11.0120 C.3     1  UNL1        0.1702
     28 C          62.0676   85.2971   12.4561 C.3     1  UNL1        0.0407
     29 C          63.1470   84.3295   12.0706 C.3     1  UNL1        0.0036
     30 C          61.3560   86.0873   11.3982 C.3     1  UNL1        0.0122
     31 N          59.5050   87.1431    9.4016 N.am    1  UNL1       -0.3288
     32 C          60.6444   86.8776   10.3403 C.2     1  UNL1        0.2184
     33 O          60.3928   87.7312   11.5478 O.2     1  UNL1       -0.2754
     34 H          58.7965   87.7782    9.6546 H       1  UNL1        0.1449
     35 H          59.4655   86.6822    8.5326 H       1  UNL1        0.1449
@<TRIPOS>BOND
     1    31    32   am
     2    32    33    2
     3    21    32    1
     4    21    22    1
     5    22    23    1
     6    23    24    1
     7    24    25    1
     8    25    26    1
     9    25    27    1
    10    27    20    1
    11    20     1    1
    12     1     2    2
    13     1     3   am
    14     3     4    1
    15     4     5    1
    16     5     6    1
    17     6     8    1
    18     8    10    1
    19    10    11   ar
    20    11    12   ar
    21    12    13   ar
    22    13    14   ar
    23    14    15   ar
    24    15    16    1
    25    16    17    1
    26    16    18    1
    27    16    19    1
    28     6     7    1
    29    27    28    1
    30    28    29    1
    31    28    30    1
    32    26    21    1
    33     7     3    1
    34    30    21    1
    35    29    23    1
    36    15    10   ar
    37    31    34    1
    38    31    35    1
    39     8     9    1
@<TRIPOS>MOLECULE
*****
 35 39 0 0 0
SMALL
GASTEIGER

@<TRIPOS>ATOM
      1 C          60.8905   88.9740   10.3277 C.2     1  UNL1        0.4048
      2 O          60.0085   89.2495    9.1461 O.2     1  UNL1       -0.2262
      3 N          61.4422   87.5964   10.5467 N.am    1  UNL1       -0.2443
      4 C          61.2001   86.4006    9.6741 C.3     1  UNL1        0.0985
      5 C          61.9410   85.2379   10.2650 C.3     1  UNL1        0.0429
      6 C          62.6410   85.7151   11.5028 C.3     1  UNL1        0.0920
      7 C          62.3327   87.1727   11.6770 C.3     1  UNL1        0.1162
      8 N          63.4988   84.8811   12.4077 N.pl3   1  UNL1       -0.3180
      9 H          64.3716   85.2215   12.7100 H       1  UNL1        0.1482
     10 C          63.0266   83.5284   12.8518 C.ar    1  UNL1        0.1324
     11 N          62.2542   83.3859   14.1298 N.ar    1  UNL1       -0.2294
     12 C          61.7820   82.0333   14.5739 C.ar    1  UNL1        0.1003
     13 C          62.0823   80.8231   13.7402 C.ar    1  UNL1        0.0207
     14 C          62.8547   80.9655   12.4623 C.ar    1  UNL1        0.0083
     15 C          63.3268   82.3182   12.0181 C.ar    1  UNL1        0.1027
     16 C          64.0992   82.4607   10.7402 C.3     1  UNL1        0.4212
     17 F          64.8717   82.6031    9.4622 F       1  UNL1       -0.1658
     18 F          63.0730   81.6307   10.0274 F       1  UNL1       -0.1658
     19 F          65.1254   83.2906   11.4530 F       1  UNL1       -0.1658
     20 O          61.2209   90.0760   11.2901 O.3     1  UNL1       -0.4383
     21 C          62.2112   90.2642   12.1805 C.3     1  UNL1        0.0688
     22 C          63.2767   91.0025   11.4258 C.3     1  UNL1        0.0086
     23 C          64.5524   91.3885   12.1140 C.3     1  UNL1        0.0007
     24 C          64.7625   91.0362   13.5568 C.3     1  UNL1        0.0036
     25 C          63.6970   90.2979   14.3114 C.3     1  UNL1        0.0407
     26 C          62.4214   89.9119   13.6233 C.3     1  UNL1        0.0122
     27 C          62.5727   90.7251   11.2517 C.3     1  UNL1        0.1702
     28 C          63.0665   91.3548    9.9830 C.3     1  UNL1        0.0407
     29 C          64.3422   91.7408   10.6711 C.3     1  UNL1        0.0036
     30 C          62.0010   90.6165   10.7377 C.3     1  UNL1        0.0122
     31 N          60.0304   88.8538   12.1100 N.am    1  UNL1       -0.3288
     32 C          60.9354   89.8781   11.4923 C.2     1  UNL1        0.2184
     33 O          60.2712   90.3005   10.2155 O.2     1  UNL1       -0.2754
     34 H          59.1931   88.6004   11.6584 H       1  UNL1        0.1449
     35 H          60.2737   88.4348   12.9670 H       1  UNL1        0.1449
@<TRIPOS>BOND
     1    31    32   am
     2    32    33    2
     3    21    32    1
     4    21    22    1
     5    22    23    1
     6    23    24    1
     7    24    25    1
     8    25    26    1
     9    25    27    1
    10    27    20    1
    11    20     1    1
    12     1     2    2
    13     1     3   am
    14     3     4    1
    15     4     5    1
    16     5     6    1
    17     6     8    1
    18     8    10    1
    19    10    11   ar
    20    11    12   ar
    21    12    13   ar
    22    13    14   ar
    23    14    15   ar
    24    15    16    1
    25    16    17    1
    26    16    18    1
    27    16    19    1
    28     6     7    1
    29    27    28    1
    30    28    29    1
    31    28    30    1
    32    26    21    1
    33     7     3    1
    34    30    21    1
    35    29    23    1
    36    15    10   ar
    37    31    34    1
    38    31    35    1
    39     8     9    1
@<TRIPOS>MOLECULE
*****
 35 39 0 0 0
SMALL
GASTEIGER

@<TRIPOS>ATOM
      1 C          60.8241   88.4241    9.9317 C.2     1  UNL1        0.4048
      2 O          59.9321   89.1335    8.9565 O.2     1  UNL1       -0.2262
      3 N          61.8181   89.2022   10.7421 N.am    1  UNL1       -0.2443
      4 C          62.0333   90.6856   10.6859 C.3     1  UNL1        0.0985
      5 C          63.1196   91.0337   11.6599 C.3     1  UNL1        0.0429
      6 C          63.5758   89.7654   12.3182 C.3     1  UNL1        0.0920
      7 C          62.7714   88.6335   11.7509 C.3     1  UNL1        0.1162
      8 N          64.6480   89.6493   13.3607 N.pl3   1  UNL1       -0.3180
      9 H          65.3559   88.9718   13.2654 H       1  UNL1        0.1482
     10 C          64.6417   90.5655   14.5484 C.ar    1  UNL1        0.1324
     11 N          63.5718   90.4340   15.5914 N.ar    1  UNL1       -0.2294
     12 C          63.5654   91.3502   16.7790 C.ar    1  UNL1        0.1003
     13 C          64.6291   92.3979   16.9237 C.ar    1  UNL1        0.0207
     14 C          65.6991   92.5293   15.8807 C.ar    1  UNL1        0.0083
     15 C          65.7054   91.6131   14.6930 C.ar    1  UNL1        0.1027
     16 C          66.7753   91.7446   13.6500 C.3     1  UNL1        0.4212
     17 F          67.8453   91.8762   12.6069 F       1  UNL1       -0.1658
     18 F          65.8050   92.4410   12.7424 F       1  UNL1       -0.1658
     19 F          67.7456   91.0484   14.5576 F       1  UNL1       -0.1658
     20 O          60.7222   86.9367   10.0966 O.3     1  UNL1       -0.4383
     21 C          61.5798   86.0126   10.5648 C.3     1  UNL1        0.0688
     22 C          62.3162   85.5182    9.3552 C.3     1  UNL1        0.0086
     23 C          63.3711   84.4617    9.4992 C.3     1  UNL1        0.0007
     24 C          63.6896   83.8995   10.8529 C.3     1  UNL1        0.0036
     25 C          62.9532   84.3938   12.0626 C.3     1  UNL1        0.0407
     26 C          61.8983   85.4504   11.9185 C.3     1  UNL1        0.0122
     27 C          61.7564   86.0413    9.4814 C.3     1  UNL1        0.1702
     28 C          61.9977   86.0805    8.0015 C.3     1  UNL1        0.0407
     29 C          63.0527   85.0239    8.1456 C.3     1  UNL1        0.0036
     30 C          61.2613   86.5748    9.2111 C.3     1  UNL1        0.0122
     31 N          60.0364   87.8110   11.6295 N.am    1  UNL1       -0.3288
     32 C          60.5248   87.0692   10.4208 C.2     1  UNL1        0.2184
     33 O          59.7596   87.6258    9.2569 O.2     1  UNL1       -0.2754
     34 H          59.3440   88.5045   11.5350 H       1  UNL1        0.1449
     35 H          60.4082   87.6045   12.5174 H       1  UNL1        0.1449
@<TRIPOS>BOND
     1    31    32   am
     2    32    33    2
     3    21    32    1
     4    21    22    1
     5    22    23    1
     6    23    24    1
     7    24    25    1
     8    25    26    1
     9    25    27    1
    10    27    20    1
    11    20     1    1
    12     1     2    2
    13     1     3   am
    14     3     4    1
    15     4     5    1
    16     5     6    1
    17     6     8    1
    18     8    10    1
    19    10    11   ar
    20    11    12   ar
    21    12    13   ar
    22    13    14   ar
    23    14    15   ar
    24    15    16    1
    25    16    17    1
    26    16    18    1
    27    16    19    1
    28     6     7    1
    29    27    28    1
    30    28    29    1
    31    28    30    1
    32    26    21    1
    33     7     3    1
    34    30    21    1
    35    29    23    1
    36    15    10   ar
    37    31    34    1
    38    31    35    1
    39     8     9    1
@<TRIPOS>MOLECULE
*****
 35 39 0 0 0
SMALL
GASTEIGER

@<TRIPOS>ATOM
      1 C          63.4506   82.5770   12.7498 C.2     1  UNL1        0.4048
      2 O          64.3065   81.4947   12.1615 O.2     1  UNL1       -0.2262
      3 N          63.0038   83.7269   11.8966 N.am    1  UNL1       -0.2443
      4 C          63.3320   83.9290   10.4470 C.3     1  UNL1        0.0985
      5 C          62.6813   85.2036    9.9976 C.3     1  UNL1        0.0429
      6 C          61.9510   85.7894   11.1696 C.3     1  UNL1        0.0920
      7 C          62.1503   84.8768   12.3432 C.3     1  UNL1        0.1162
      8 N          61.1603   87.0640   11.1682 N.pl3   1  UNL1       -0.3180
      9 H          60.1791   87.0346   11.0923 H       1  UNL1        0.1482
     10 C          61.8643   88.3836   11.2825 C.ar    1  UNL1        0.1324
     11 N          62.8686   88.6058   12.3744 N.ar    1  UNL1       -0.2294
     12 C          63.5726   89.9253   12.4887 C.ar    1  UNL1        0.1003
     13 C          63.2724   91.0227   11.5111 C.ar    1  UNL1        0.0207
     14 C          62.2682   90.8005   10.4193 C.ar    1  UNL1        0.0083
     15 C          61.5641   89.4810   10.3050 C.ar    1  UNL1        0.1027
     16 C          60.5599   89.2588    9.2132 C.3     1  UNL1        0.4212
     17 F          59.5555   89.0367    8.1213 F       1  UNL1       -0.1658
     18 F          59.7321   90.3916    9.7441 F       1  UNL1       -0.1658
     19 F          61.3876   88.1261    8.6823 F       1  UNL1       -0.1658
     20 O          63.0416   82.5093   14.1914 O.3     1  UNL1       -0.4383
     21 C          63.9079   83.5191   14.3879 C.3     1  UNL1        0.0688
     22 C          63.2359   84.4193   15.3818 C.3     1  UNL1        0.0086
     23 C          63.9221   85.6703   15.8445 C.3     1  UNL1        0.0007
     24 C          65.2803   86.0210   15.3134 C.3     1  UNL1        0.0036
     25 C          65.9524   85.1208   14.3195 C.3     1  UNL1        0.0407
     26 C          65.2662   83.8699   13.8567 C.3     1  UNL1        0.0122
     27 C          63.0498   83.7513   15.0324 C.3     1  UNL1        0.1702
     28 C          61.8776   84.0686   15.9129 C.3     1  UNL1        0.0407
     29 C          62.5638   85.3196   16.3757 C.3     1  UNL1        0.0036
     30 C          62.5497   83.1684   14.9190 C.3     1  UNL1        0.0122
     31 N          63.7670   80.9259   14.3137 N.am    1  UNL1       -0.3288
     32 C          63.2217   82.2681   13.9250 C.2     1  UNL1        0.2184
     33 O          62.0071   81.9944   13.0885 O.2     1  UNL1       -0.2754
     34 H          63.3167   80.1049   14.0099 H       1  UNL1        0.1449
     35 H          64.5753   80.8660   14.8725 H       1  UNL1        0.1449
@<TRIPOS>BOND
     1    31    32   am
     2    32    33    2
     3    21    32    1
     4    21    22    1
     5    22    23    1
     6    23    24    1
     7    24    25    1
     8    25    26    1
     9    25    27    1
    10    27    20    1
    11    20     1    1
    12     1     2    2
    13     1     3   am
    14     3     4    1
    15     4     5    1
    16     5     6    1
    17     6     8    1
    18     8    10    1
    19    10    11   ar
    20    11    12   ar
    21    12    13   ar
    22    13    14   ar
    23    14    15   ar
    24    15    16    1
    25    16    17    1
    26    16    18    1
    27    16    19    1
    28     6     7    1
    29    27    28    1
    30    28    29    1
    31    28    30    1
    32    26    21    1
    33     7     3    1
    34    30    21    1
    35    29    23    1
    36    15    10   ar
    37    31    34    1
    38    31    35    1
    39     8     9    1
