@<TRIPOS>MOLECULE
*****
 24 27 0 0 0
SMALL
GASTEIGER

@<TRIPOS>ATOM
      1 C          60.9779   90.5402   11.2160 C.3     1  UNL1        0.1363
      2 N          61.4415   89.1156   11.2905 N.ar    1  UNL1       -0.2667
      3 C          62.6167   88.7533   12.1494 C.ar    1  UNL1        0.2035
      4 N          63.0803   87.3286   12.2240 N.ar    1  UNL1       -0.2147
      5 C          62.3688   86.2663   11.4397 C.ar    1  UNL1        0.0911
      6 C          61.1935   86.6286   10.5808 C.ar    1  UNL1        0.0801
      7 C          60.7299   88.0532   10.5062 C.ar    1  UNL1        0.2645
      8 O          59.5547   88.4155    9.6474 O.2     1  UNL1       -0.2668
      9 N          63.3283   89.8156   12.9337 N.pl3   1  UNL1       -0.2761
     10 C          63.3207   89.7727   14.4330 C.3     1  UNL1        0.1256
     11 C          64.0322   90.8350   15.2173 C.3     1  UNL1        0.1635
     12 O          64.7515   91.9402   14.5023 O.3     1  UNL1       -0.3527
     13 C          64.7591   91.9831   13.0030 C.3     1  UNL1        0.1333
     14 C          65.3781   92.9417   12.0294 C.3     1  UNL1        0.0313
     15 C          65.0491   92.4719   10.6434 C.3     1  UNL1        0.0043
     16 C          64.2267   91.2229   10.7604 C.3     1  UNL1        0.0224
     17 C          64.0475   90.9208   12.2186 C.3     1  UNL1        0.1026
     18 C          62.8324   84.8417   11.5143 C.ar    1  UNL1        0.0485
     19 C          62.7003   84.0762   12.7975 C.ar    1  UNL1        0.0244
     20 C          63.1639   82.6516   12.8720 C.ar    1  UNL1        0.0991
     21 N          63.7595   81.9925   11.6633 N.ar    1  UNL1       -0.2400
     22 C          63.8916   82.7580   10.3802 C.ar    1  UNL1        0.1285
     23 C          63.4280   84.1826   10.3057 C.ar    1  UNL1        0.1606
     24 F          63.5601   84.9482    9.0225 F       1  UNL1       -0.2025
@<TRIPOS>BOND
     1     1     2    1
     2     2     3   ar
     3     3     9    1
     4     9    10    1
     5    10    11    1
     6    11    12    1
     7    12    13    1
     8    13    14    1
     9    14    15    1
    10    15    16    1
    11    17    16    1
    12     3     4   ar
    13     4     5   ar
    14     5    18    1
    15    18    19   ar
    16    19    20   ar
    17    20    21   ar
    18    21    22   ar
    19    22    23   ar
    20    23    24    1
    21     5     6   ar
    22     6     7   ar
    23     7     8    2
    24     7     2   ar
    25    17     9    1
    26    23    18   ar
    27    17    13    1
@<TRIPOS>MOLECULE
*****
 24 27 0 0 0
SMALL
GASTEIGER

@<TRIPOS>ATOM
      1 C          61.0131   90.1499   10.5744 C.3     1  UNL1        0.1363
      2 N          61.4896   88.7821   10.9644 N.ar    1  UNL1       -0.2667
      3 C          62.6735   88.6312   11.8730 C.ar    1  UNL1        0.2035
      4 N          63.1500   87.2633   12.2630 N.ar    1  UNL1       -0.2147
      5 C          62.4427   86.0466   11.7445 C.ar    1  UNL1        0.0911
      6 C          61.2588   86.1974   10.8358 C.ar    1  UNL1        0.0801
      7 C          60.7822   87.5652   10.4458 C.ar    1  UNL1        0.2645
      8 O          59.5983   87.7161    9.5372 O.2     1  UNL1       -0.2668
      9 N          63.3809   89.8480   12.3916 N.pl3   1  UNL1       -0.2761
     10 C          63.9646   90.8422   11.4320 C.3     1  UNL1        0.1256
     11 C          64.6720   92.0589   11.9505 C.3     1  UNL1        0.1635
     12 O          64.7956   92.2817   13.4288 O.3     1  UNL1       -0.3527
     13 C          64.2118   91.2876   14.3884 C.3     1  UNL1        0.1333
     14 C          64.1777   91.2400   15.8873 C.3     1  UNL1        0.0313
     15 C          63.4493   89.9938   16.2950 C.3     1  UNL1        0.0043
     16 C          63.0331   89.2711   15.0482 C.3     1  UNL1        0.0224
     17 C          63.5044   90.0707   13.8698 C.3     1  UNL1        0.1026
     18 C          62.9192   84.6788   12.1345 C.ar    1  UNL1        0.0485
     19 C          62.7774   84.2113   13.5527 C.ar    1  UNL1        0.0244
     20 C          63.2539   82.8435   13.9427 C.ar    1  UNL1        0.0991
     21 N          63.8723   81.9433   12.9144 N.ar    1  UNL1       -0.2400
     22 C          64.0140   82.4108   11.4963 C.ar    1  UNL1        0.1285
     23 C          63.5375   83.7785   11.1063 C.ar    1  UNL1        0.1606
     24 F          63.6793   84.2461    9.6881 F       1  UNL1       -0.2025
@<TRIPOS>BOND
     1     1     2    1
     2     2     3   ar
     3     3     9    1
     4     9    10    1
     5    10    11    1
     6    11    12    1
     7    12    13    1
     8    13    14    1
     9    14    15    1
    10    15    16    1
    11    17    16    1
    12     3     4   ar
    13     4     5   ar
    14     5    18    1
    15    18    19   ar
    16    19    20   ar
    17    20    21   ar
    18    21    22   ar
    19    22    23   ar
    20    23    24    1
    21     5     6   ar
    22     6     7   ar
    23     7     8    2
    24     7     2   ar
    25    17     9    1
    26    23    18   ar
    27    17    13    1
@<TRIPOS>MOLECULE
*****
 24 27 0 0 0
SMALL
GASTEIGER

@<TRIPOS>ATOM
      1 C          62.9880   89.8733   14.3156 C.3     1  UNL1        0.1363
      2 N          63.7899   90.7486   13.3986 N.ar    1  UNL1       -0.2667
      3 C          63.4164   90.8585   11.9501 C.ar    1  UNL1        0.2035
      4 N          64.2182   91.7339   11.0330 N.ar    1  UNL1       -0.2147
      5 C          65.3935   92.4993   11.5646 C.ar    1  UNL1        0.0911
      6 C          65.7671   92.3894   13.0133 C.ar    1  UNL1        0.0801
      7 C          64.9653   91.5141   13.9302 C.ar    1  UNL1        0.2645
      8 O          65.3388   91.4042   15.3788 O.2     1  UNL1       -0.2668
      9 N          62.2410   90.0931   11.4184 N.pl3   1  UNL1       -0.2761
     10 C          61.0708   90.8267   10.8332 C.3     1  UNL1        0.1256
     11 C          59.8955   90.0613   10.3016 C.3     1  UNL1        0.1635
     12 O          59.8902   88.5622   10.3551 O.3     1  UNL1       -0.3527
     13 C          61.0604   87.8286   10.9403 C.3     1  UNL1        0.1333
     14 C          61.3369   86.3662   11.1268 C.3     1  UNL1        0.0313
     15 C          62.6831   86.2277   11.7736 C.3     1  UNL1        0.0043
     16 C          63.2387   87.6046   11.9870 C.3     1  UNL1        0.0224
     17 C          62.2358   88.5941   11.4720 C.3     1  UNL1        0.1026
     18 C          66.1954   93.3747   10.6477 C.ar    1  UNL1        0.0485
     19 C          65.7661   94.7897   10.3963 C.ar    1  UNL1        0.0244
     20 C          66.5679   95.6651    9.4793 C.ar    1  UNL1        0.0991
     21 N          67.7991   95.1253    8.8138 N.ar    1  UNL1       -0.2400
     22 C          68.2284   93.7102    9.0652 C.ar    1  UNL1        0.1285
     23 C          67.4265   92.8349    9.9822 C.ar    1  UNL1        0.1606
     24 F          67.8558   91.4198   10.2336 F       1  UNL1       -0.2025
@<TRIPOS>BOND
     1     1     2    1
     2     2     3   ar
     3     3     9    1
     4     9    10    1
     5    10    11    1
     6    11    12    1
     7    12    13    1
     8    13    14    1
     9    14    15    1
    10    15    16    1
    11    17    16    1
    12     3     4   ar
    13     4     5   ar
    14     5    18    1
    15    18    19   ar
    16    19    20   ar
    17    20    21   ar
    18    21    22   ar
    19    22    23   ar
    20    23    24    1
    21     5     6   ar
    22     6     7   ar
    23     7     8    2
    24     7     2   ar
    25    17     9    1
    26    23    18   ar
    27    17    13    1
@<TRIPOS>MOLECULE
*****
 24 27 0 0 0
SMALL
GASTEIGER

@<TRIPOS>ATOM
      1 C          63.4108   89.5723   16.7794 C.3     1  UNL1        0.1363
      2 N          63.4634   88.2681   16.0403 N.ar    1  UNL1       -0.2667
      3 C          63.8499   88.2423   14.5912 C.ar    1  UNL1        0.2035
      4 N          63.9025   86.9380   13.8521 N.ar    1  UNL1       -0.2147
      5 C          63.5685   85.6596   14.5620 C.ar    1  UNL1        0.0911
      6 C          63.1819   85.6854   16.0112 C.ar    1  UNL1        0.0801
      7 C          63.1293   86.9896   16.7502 C.ar    1  UNL1        0.2645
      8 O          62.7428   87.0154   18.1993 O.2     1  UNL1       -0.2668
      9 N          64.1840   89.5207   13.8812 N.pl3   1  UNL1       -0.2761
     10 C          65.1555   90.4863   14.4924 C.3     1  UNL1        0.1256
     11 C          65.4896   91.7646   13.7825 C.3     1  UNL1        0.1635
     12 O          64.8521   92.0775   12.4611 O.3     1  UNL1       -0.3527
     13 C          63.8805   91.1118   11.8499 C.3     1  UNL1        0.1333
     14 C          63.1003   91.1484   10.5693 C.3     1  UNL1        0.0313
     15 C          62.2840   89.8926   10.4879 C.3     1  UNL1        0.0043
     16 C          62.5597   89.0799   11.7182 C.3     1  UNL1        0.0224
     17 C          63.5465   89.8334   12.5599 C.3     1  UNL1        0.1026
     18 C          63.6210   84.3554   13.8229 C.ar    1  UNL1        0.0485
     19 C          64.0156   83.1004   14.5435 C.ar    1  UNL1        0.0244
     20 C          64.0682   81.7962   13.8044 C.ar    1  UNL1        0.0991
     21 N          63.7260   81.7471   12.3447 N.ar    1  UNL1       -0.2400
     22 C          63.3314   83.0020   11.6243 C.ar    1  UNL1        0.1285
     23 C          63.2789   84.3062   12.3633 C.ar    1  UNL1        0.1606
     24 F          62.8842   85.5613   11.6428 F       1  UNL1       -0.2025
@<TRIPOS>BOND
     1     1     2    1
     2     2     3   ar
     3     3     9    1
     4     9    10    1
     5    10    11    1
     6    11    12    1
     7    12    13    1
     8    13    14    1
     9    14    15    1
    10    15    16    1
    11    17    16    1
    12     3     4   ar
    13     4     5   ar
    14     5    18    1
    15    18    19   ar
    16    19    20   ar
    17    20    21   ar
    18    21    22   ar
    19    22    23   ar
    20    23    24    1
    21     5     6   ar
    22     6     7   ar
    23     7     8    2
    24     7     2   ar
    25    17     9    1
    26    23    18   ar
    27    17    13    1
@<TRIPOS>MOLECULE
*****
 24 27 0 0 0
SMALL
GASTEIGER

@<TRIPOS>ATOM
      1 C          60.6669   86.2484    9.5458 C.3     1  UNL1        0.1363
      2 N          61.3881   87.2011   10.4526 N.ar    1  UNL1       -0.2667
      3 C          62.4883   86.7027   11.3419 C.ar    1  UNL1        0.2035
      4 N          63.2095   87.6555   12.2487 N.ar    1  UNL1       -0.2147
      5 C          62.8304   89.1066   12.2662 C.ar    1  UNL1        0.0911
      6 C          61.7301   89.6051   11.3768 C.ar    1  UNL1        0.0801
      7 C          61.0089   88.6524   10.4701 C.ar    1  UNL1        0.2645
      8 O          59.9087   89.1508    9.5807 O.2     1  UNL1       -0.2668
      9 N          62.8675   85.2515   11.3245 N.pl3   1  UNL1       -0.2761
     10 C          63.3455   84.6165   10.0524 C.3     1  UNL1        0.1256
     11 C          63.7247   83.1654   10.0350 C.3     1  UNL1        0.1635
     12 O          63.6259   82.3492   11.2896 O.3     1  UNL1       -0.3527
     13 C          63.1478   82.9842   12.5617 C.3     1  UNL1        0.1333
     14 C          62.9483   82.4363   13.9437 C.3     1  UNL1        0.0313
     15 C          62.4457   83.5489   14.8153 C.3     1  UNL1        0.0043
     16 C          62.3347   84.7844   13.9719 C.3     1  UNL1        0.0224
     17 C          62.7687   84.4354   12.5791 C.3     1  UNL1        0.1026
     18 C          63.5515   90.0594   13.1730 C.ar    1  UNL1        0.0485
     19 C          63.4369   89.9106   14.6611 C.ar    1  UNL1        0.0244
     20 C          64.1580   90.8633   15.5679 C.ar    1  UNL1        0.0991
     21 N          64.9938   91.9649   14.9864 N.ar    1  UNL1       -0.2400
     22 C          65.1083   92.1137   13.4983 C.ar    1  UNL1        0.1285
     23 C          64.3872   91.1609   12.5915 C.ar    1  UNL1        0.1606
     24 F          64.5019   91.3098   11.1033 F       1  UNL1       -0.2025
@<TRIPOS>BOND
     1     1     2    1
     2     2     3   ar
     3     3     9    1
     4     9    10    1
     5    10    11    1
     6    11    12    1
     7    12    13    1
     8    13    14    1
     9    14    15    1
    10    15    16    1
    11    17    16    1
    12     3     4   ar
    13     4     5   ar
    14     5    18    1
    15    18    19   ar
    16    19    20   ar
    17    20    21   ar
    18    21    22   ar
    19    22    23   ar
    20    23    24    1
    21     5     6   ar
    22     6     7   ar
    23     7     8    2
    24     7     2   ar
    25    17     9    1
    26    23    18   ar
    27    17    13    1
@<TRIPOS>MOLECULE
*****
 24 27 0 0 0
SMALL
GASTEIGER

@<TRIPOS>ATOM
      1 C          61.2185   85.8758   10.3497 C.3     1  UNL1        0.1363
      2 N          61.9341   86.9746   11.0780 N.ar    1  UNL1       -0.2667
      3 C          62.7738   86.6554   12.2793 C.ar    1  UNL1        0.2035
      4 N          63.4894   87.7543   13.0077 N.ar    1  UNL1       -0.2147
      5 C          63.3655   89.1723   12.5347 C.ar    1  UNL1        0.0911
      6 C          62.5258   89.4916   11.3334 C.ar    1  UNL1        0.0801
      7 C          61.8102   88.3927   10.6051 C.ar    1  UNL1        0.2645
      8 O          60.9706   88.7120    9.4038 O.2     1  UNL1       -0.2668
      9 N          62.8978   85.2373   12.7523 N.pl3   1  UNL1       -0.2761
     10 C          62.5374   84.8836   14.1647 C.3     1  UNL1        0.1256
     11 C          62.6614   83.4656   14.6377 C.3     1  UNL1        0.1635
     12 O          63.1458   82.4012   13.6983 O.3     1  UNL1       -0.3527
     13 C          63.5062   82.7549   12.2859 C.3     1  UNL1        0.1333
     14 C          64.0084   81.9265   11.1407 C.3     1  UNL1        0.0313
     15 C          64.1947   82.8325    9.9599 C.3     1  UNL1        0.0043
     16 C          63.8077   84.2210   10.3753 C.3     1  UNL1        0.0224
     17 C          63.3822   84.1730   11.8129 C.3     1  UNL1        0.1026
     18 C          64.0811   90.2711   13.2630 C.ar    1  UNL1        0.0485
     19 C          64.8513   91.3032   12.4938 C.ar    1  UNL1        0.0244
     20 C          65.5669   92.4020   13.2221 C.ar    1  UNL1        0.0991
     21 N          65.5123   92.4687   14.7196 N.ar    1  UNL1       -0.2400
     22 C          64.7421   91.4367   15.4888 C.ar    1  UNL1        0.1285
     23 C          64.0265   90.3379   14.7605 C.ar    1  UNL1        0.1606
     24 F          63.2564   89.3058   15.5297 F       1  UNL1       -0.2025
@<TRIPOS>BOND
     1     1     2    1
     2     2     3   ar
     3     3     9    1
     4     9    10    1
     5    10    11    1
     6    11    12    1
     7    12    13    1
     8    13    14    1
     9    14    15    1
    10    15    16    1
    11    17    16    1
    12     3     4   ar
    13     4     5   ar
    14     5    18    1
    15    18    19   ar
    16    19    20   ar
    17    20    21   ar
    18    21    22   ar
    19    22    23   ar
    20    23    24    1
    21     5     6   ar
    22     6     7   ar
    23     7     8    2
    24     7     2   ar
    25    17     9    1
    26    23    18   ar
    27    17    13    1
@<TRIPOS>MOLECULE
*****
 24 27 0 0 0
SMALL
GASTEIGER

@<TRIPOS>ATOM
      1 C          63.9888   83.2499   10.1227 C.3     1  UNL1        0.1363
      2 N          63.2289   84.5262   10.3314 N.ar    1  UNL1       -0.2667
      3 C          62.9296   85.0020   11.7220 C.ar    1  UNL1        0.2035
      4 N          62.1697   86.2784   11.9307 N.ar    1  UNL1       -0.2147
      5 C          61.7091   87.0789   10.7489 C.ar    1  UNL1        0.0911
      6 C          62.0084   86.6031    9.3581 C.ar    1  UNL1        0.0801
      7 C          62.7683   85.3268    9.1494 C.ar    1  UNL1        0.2645
      8 O          63.0676   84.8510    7.7587 O.2     1  UNL1       -0.2668
      9 N          63.3902   84.2015   12.9040 N.pl3   1  UNL1       -0.2761
     10 C          64.2137   84.8522   13.9756 C.3     1  UNL1        0.1256
     11 C          64.6743   84.0518   15.1575 C.3     1  UNL1        0.1635
     12 O          64.3113   82.6005   15.2680 O.3     1  UNL1       -0.3527
     13 C          63.4877   81.9498   14.1964 C.3     1  UNL1        0.1333
     14 C          62.9785   80.5483   14.0340 C.3     1  UNL1        0.0313
     15 C          62.2033   80.4826   12.7515 C.3     1  UNL1        0.0043
     16 C          62.2333   81.8435   12.1214 C.3     1  UNL1        0.0224
     17 C          63.0272   82.7503   13.0144 C.3     1  UNL1        0.1026
     18 C          60.9492   88.3552   10.9575 C.ar    1  UNL1        0.0485
     19 C          59.5960   88.3253   11.6040 C.ar    1  UNL1        0.0244
     20 C          58.8361   89.6016   11.8127 C.ar    1  UNL1        0.0991
     21 N          59.4295   90.9078   11.3749 N.ar    1  UNL1       -0.2400
     22 C          60.7827   90.9377   10.7284 C.ar    1  UNL1        0.1285
     23 C          61.5425   89.6614   10.5197 C.ar    1  UNL1        0.1606
     24 F          62.8957   89.6913    9.8732 F       1  UNL1       -0.2025
@<TRIPOS>BOND
     1     1     2    1
     2     2     3   ar
     3     3     9    1
     4     9    10    1
     5    10    11    1
     6    11    12    1
     7    12    13    1
     8    13    14    1
     9    14    15    1
    10    15    16    1
    11    17    16    1
    12     3     4   ar
    13     4     5   ar
    14     5    18    1
    15    18    19   ar
    16    19    20   ar
    17    20    21   ar
    18    21    22   ar
    19    22    23   ar
    20    23    24    1
    21     5     6   ar
    22     6     7   ar
    23     7     8    2
    24     7     2   ar
    25    17     9    1
    26    23    18   ar
    27    17    13    1
@<TRIPOS>MOLECULE
*****
 24 27 0 0 0
SMALL
GASTEIGER

@<TRIPOS>ATOM
      1 C          64.5743   87.4224   14.5720 C.3     1  UNL1        0.1363
      2 N          63.6925   87.5526   13.3655 N.ar    1  UNL1       -0.2667
      3 C          63.0364   86.3368   12.7814 C.ar    1  UNL1        0.2035
      4 N          62.1546   86.4670   11.5748 N.ar    1  UNL1       -0.2147
      5 C          61.9290   87.8130   10.9526 C.ar    1  UNL1        0.0911
      6 C          62.5851   89.0289   11.5367 C.ar    1  UNL1        0.0801
      7 C          63.4669   88.8986   12.7432 C.ar    1  UNL1        0.2645
      8 O          64.1230   90.1145   13.3273 O.2     1  UNL1       -0.2668
      9 N          63.2620   84.9907   13.4037 N.pl3   1  UNL1       -0.2761
     10 C          63.2484   84.8427   14.8963 C.3     1  UNL1        0.1256
     11 C          63.4740   83.4967   15.5185 C.3     1  UNL1        0.1635
     12 O          63.7133   82.2986   14.6482 O.3     1  UNL1       -0.3527
     13 C          63.7269   82.4466   13.1556 C.3     1  UNL1        0.1333
     14 C          63.9354   81.4541   12.0505 C.3     1  UNL1        0.0313
     15 C          63.8387   82.1867   10.7452 C.3     1  UNL1        0.0043
     16 C          63.5704   83.6320   11.0436 C.3     1  UNL1        0.0224
     17 C          63.5012   83.7927   12.5333 C.3     1  UNL1        0.1026
     18 C          61.0473   87.9432    9.7461 C.ar    1  UNL1        0.0485
     19 C          60.6503   89.3022    9.2504 C.ar    1  UNL1        0.0244
     20 C          59.7686   89.4324    8.0439 C.ar    1  UNL1        0.0991
     21 N          59.2838   88.2036    7.3332 N.ar    1  UNL1       -0.2400
     22 C          59.6807   86.8447    7.8289 C.ar    1  UNL1        0.1285
     23 C          60.5624   86.7145    9.0353 C.ar    1  UNL1        0.1606
     24 F          60.9594   85.3555    9.5310 F       1  UNL1       -0.2025
@<TRIPOS>BOND
     1     1     2    1
     2     2     3   ar
     3     3     9    1
     4     9    10    1
     5    10    11    1
     6    11    12    1
     7    12    13    1
     8    13    14    1
     9    14    15    1
    10    15    16    1
    11    17    16    1
    12     3     4   ar
    13     4     5   ar
    14     5    18    1
    15    18    19   ar
    16    19    20   ar
    17    20    21   ar
    18    21    22   ar
    19    22    23   ar
    20    23    24    1
    21     5     6   ar
    22     6     7   ar
    23     7     8    2
    24     7     2   ar
    25    17     9    1
    26    23    18   ar
    27    17    13    1
@<TRIPOS>MOLECULE
*****
 24 27 0 0 0
SMALL
GASTEIGER

@<TRIPOS>ATOM
      1 C          63.0147   84.3186   12.3721 C.3     1  UNL1        0.1363
      2 N          63.3497   85.6549   12.9654 N.ar    1  UNL1       -0.2667
      3 C          63.0079   86.9123   12.2224 C.ar    1  UNL1        0.2035
      4 N          63.3429   88.2487   12.8158 N.ar    1  UNL1       -0.2147
      5 C          64.0197   88.3276   14.1520 C.ar    1  UNL1        0.0911
      6 C          64.3616   87.0701   14.8951 C.ar    1  UNL1        0.0801
      7 C          64.0266   85.7338   14.3017 C.ar    1  UNL1        0.2645
      8 O          64.3684   84.4764   15.0447 O.2     1  UNL1       -0.2668
      9 N          62.3311   86.8334   10.8861 N.pl3   1  UNL1       -0.2761
     10 C          62.5337   85.6310   10.0126 C.3     1  UNL1        0.1256
     11 C          61.8570   85.5521    8.6764 C.3     1  UNL1        0.1635
     12 O          60.9774   86.6757    8.2135 O.3     1  UNL1       -0.3527
     13 C          60.7748   87.8781    9.0871 C.3     1  UNL1        0.1333
     14 C          59.9714   89.1309    8.8997 C.3     1  UNL1        0.0313
     15 C          60.1517   89.9840   10.1202 C.3     1  UNL1        0.0043
     16 C          61.0665   89.2585   11.0619 C.3     1  UNL1        0.0224
     17 C          61.4516   87.9570   10.4234 C.3     1  UNL1        0.1026
     18 C          64.3547   89.6639   14.7453 C.ar    1  UNL1        0.0485
     19 C          65.3863   90.5364   14.0938 C.ar    1  UNL1        0.0244
     20 C          65.7213   91.8727   14.6871 C.ar    1  UNL1        0.0991
     21 N          65.0247   92.3364   15.9320 N.ar    1  UNL1       -0.2400
     22 C          63.9932   91.4639   16.5835 C.ar    1  UNL1        0.1285
     23 C          63.6582   90.1276   15.9902 C.ar    1  UNL1        0.1606
     24 F          62.6266   89.2551   16.6417 F       1  UNL1       -0.2025
@<TRIPOS>BOND
     1     1     2    1
     2     2     3   ar
     3     3     9    1
     4     9    10    1
     5    10    11    1
     6    11    12    1
     7    12    13    1
     8    13    14    1
     9    14    15    1
    10    15    16    1
    11    17    16    1
    12     3     4   ar
    13     4     5   ar
    14     5    18    1
    15    18    19   ar
    16    19    20   ar
    17    20    21   ar
    18    21    22   ar
    19    22    23   ar
    20    23    24    1
    21     5     6   ar
    22     6     7   ar
    23     7     8    2
    24     7     2   ar
    25    17     9    1
    26    23    18   ar
    27    17    13    1
