@<TRIPOS>MOLECULE
*****
 22 24 0 0 0
SMALL
GASTEIGER

@<TRIPOS>ATOM
      1 N          61.8660   89.2858   12.3085 N.pl3   1  UNL1       -0.3144
      2 H          60.9036   89.4882   12.3539 H       1  UNL1        0.1485
      3 C          62.8151   89.9341   13.2724 C.ar    1  UNL1        0.1301
      4 N          62.7551   89.5889   14.7308 N.ar    1  UNL1       -0.2293
      5 C          63.7041   90.2372   15.6947 C.ar    1  UNL1        0.1018
      6 C          64.7132   91.2307   15.2000 C.ar    1  UNL1        0.0379
      7 C          64.7733   91.5759   13.7415 C.ar    1  UNL1        0.0640
      8 C          63.8242   90.9276   12.7777 C.ar    1  UNL1        0.0483
      9 C          64.1180   91.4623   11.4073 C.ar    1  UNL1        0.0170
     10 C          65.2486   92.4411   11.5243 C.ar    1  UNL1        0.0376
     11 C          65.8659   93.2140   10.3966 C.3     1  UNL1        0.0500
     12 N          65.6536   92.5113   12.9669 N.ar    1  UNL1       -0.3285
     13 C          66.7469   93.3666   13.5351 C.3     1  UNL1        0.1301
     14 C          62.3833   88.3292   11.2754 C.3     1  UNL1        0.1147
     15 C          60.6339   90.3535    9.9183 C.3     1  UNL1        0.0307
     16 C          60.6323   88.9279    9.4519 C.ar    1  UNL1       -0.0245
     17 C          59.7559   88.5144    8.3068 C.ar    1  UNL1       -0.0045
     18 C          59.7542   87.0888    7.8404 C.ar    1  UNL1       -0.0007
     19 C          60.6289   86.0767    8.5189 C.ar    1  UNL1       -0.0045
     20 C          61.5053   86.4901    9.6639 C.ar    1  UNL1       -0.0245
     21 C          62.3800   85.4779   10.3424 C.3     1  UNL1        0.0307
     22 C          61.5070   87.9158   10.1304 C.ar    1  UNL1       -0.0105
@<TRIPOS>BOND
     1    15    16    1
     2    16    17   ar
     3    17    18   ar
     4    18    19   ar
     5    19    20   ar
     6    20    21    1
     7    20    22   ar
     8    22    14    1
     9    14     1    1
    10     1     3    1
    11     3     4   ar
    12     4     5   ar
    13     5     6   ar
    14     6     7   ar
    15     7     8   ar
    16     8     9   ar
    17     9    10   ar
    18    10    11    1
    19    10    12   ar
    20    12    13    1
    21    22    16   ar
    22     8     3   ar
    23    12     7   ar
    24     1     2    1
@<TRIPOS>MOLECULE
*****
 22 24 0 0 0
SMALL
GASTEIGER

@<TRIPOS>ATOM
      1 N          61.8637   89.3254   12.2961 N.pl3   1  UNL1       -0.3144
      2 H          60.9101   89.5701   12.3090 H       1  UNL1        0.1485
      3 C          62.8136   89.9583   13.2694 C.ar    1  UNL1        0.1301
      4 N          62.7444   89.6017   14.7247 N.ar    1  UNL1       -0.2293
      5 C          63.6943   90.2345   15.6979 C.ar    1  UNL1        0.1018
      6 C          64.7135   91.2239   15.2158 C.ar    1  UNL1        0.0379
      7 C          64.7827   91.5805   13.7604 C.ar    1  UNL1        0.0640
      8 C          63.8328   90.9477   12.7872 C.ar    1  UNL1        0.0483
      9 C          64.1368   91.4912   11.4226 C.ar    1  UNL1        0.0170
     10 C          65.2746   92.4599   11.5524 C.ar    1  UNL1        0.0376
     11 C          65.9030   93.2371   10.4338 C.3     1  UNL1        0.0500
     12 N          65.6738   92.5151   12.9973 N.ar    1  UNL1       -0.3285
     13 C          66.7714   93.3571   13.5772 C.3     1  UNL1        0.1301
     14 C          62.3666   88.3199   11.3032 C.3     1  UNL1        0.1147
     15 C          62.3613   85.4608   10.3946 C.3     1  UNL1        0.0307
     16 C          61.4943   86.4696    9.7014 C.ar    1  UNL1       -0.0245
     17 C          60.6246   86.0489    8.5539 C.ar    1  UNL1       -0.0045
     18 C          59.7576   87.0578    7.8608 C.ar    1  UNL1       -0.0007
     19 C          59.7603   88.4873    8.3151 C.ar    1  UNL1       -0.0045
     20 C          60.6299   88.9080    9.4625 C.ar    1  UNL1       -0.0245
     21 C          60.6326   90.3376    9.9168 C.3     1  UNL1        0.0307
     22 C          61.4970   87.8992   10.1557 C.ar    1  UNL1       -0.0105
@<TRIPOS>BOND
     1    15    16    1
     2    16    17   ar
     3    17    18   ar
     4    18    19   ar
     5    19    20   ar
     6    20    21    1
     7    20    22   ar
     8    22    14    1
     9    14     1    1
    10     1     3    1
    11     3     4   ar
    12     4     5   ar
    13     5     6   ar
    14     6     7   ar
    15     7     8   ar
    16     8     9   ar
    17     9    10   ar
    18    10    11    1
    19    10    12   ar
    20    12    13    1
    21    22    16   ar
    22     8     3   ar
    23    12     7   ar
    24     1     2    1
@<TRIPOS>MOLECULE
*****
 22 24 0 0 0
SMALL
GASTEIGER

@<TRIPOS>ATOM
      1 N          62.8316   85.5575   13.0683 N.pl3   1  UNL1       -0.3144
      2 H          62.4508   85.7478   13.9560 H       1  UNL1        0.1485
      3 C          62.4426   86.3992   11.8892 C.ar    1  UNL1        0.1301
      4 N          61.7040   85.7826   10.7385 N.ar    1  UNL1       -0.2293
      5 C          61.3151   86.6243    9.5595 C.ar    1  UNL1        0.1018
      6 C          61.6648   88.0827    9.5311 C.ar    1  UNL1        0.0379
      7 C          62.4034   88.6994   10.6818 C.ar    1  UNL1        0.0640
      8 C          62.7924   87.8576   11.8608 C.ar    1  UNL1        0.0483
      9 C          63.5102   88.7369   12.8416 C.ar    1  UNL1        0.0170
     10 C          63.5649   90.1220   12.2686 C.ar    1  UNL1        0.0376
     11 C          64.1932   91.3201   12.9166 C.3     1  UNL1        0.0500
     12 N          62.8809   90.0988   10.9338 N.ar    1  UNL1       -0.3285
     13 C          62.7051   91.2696   10.0127 C.3     1  UNL1        0.1301
     14 C          63.8008   84.4258   12.8948 C.3     1  UNL1        0.1147
     15 C          62.5814   83.2517   15.3717 C.3     1  UNL1        0.0307
     16 C          62.6971   82.4225   14.1271 C.ar    1  UNL1       -0.0245
     17 C          62.2030   81.0061   14.1208 C.ar    1  UNL1       -0.0045
     18 C          62.3187   80.1769   12.8763 C.ar    1  UNL1       -0.0007
     19 C          62.9283   80.7640   11.6379 C.ar    1  UNL1       -0.0045
     20 C          63.4224   82.1803   11.6440 C.ar    1  UNL1       -0.0245
     21 C          64.0320   82.7674   10.4056 C.3     1  UNL1        0.0307
     22 C          63.3068   83.0096   12.8887 C.ar    1  UNL1       -0.0105
@<TRIPOS>BOND
     1    15    16    1
     2    16    17   ar
     3    17    18   ar
     4    18    19   ar
     5    19    20   ar
     6    20    21    1
     7    20    22   ar
     8    22    14    1
     9    14     1    1
    10     1     3    1
    11     3     4   ar
    12     4     5   ar
    13     5     6   ar
    14     6     7   ar
    15     7     8   ar
    16     8     9   ar
    17     9    10   ar
    18    10    11    1
    19    10    12   ar
    20    12    13    1
    21    22    16   ar
    22     8     3   ar
    23    12     7   ar
    24     1     2    1
@<TRIPOS>MOLECULE
*****
 22 24 0 0 0
SMALL
GASTEIGER

@<TRIPOS>ATOM
      1 N          62.7815   85.5717   13.0444 N.pl3   1  UNL1       -0.3144
      2 H          62.3611   85.7376   13.9190 H       1  UNL1        0.1485
      3 C          62.4147   86.4200   11.8629 C.ar    1  UNL1        0.1301
      4 N          61.6829   85.8135   10.7025 N.ar    1  UNL1       -0.2293
      5 C          61.3161   86.6618    9.5210 C.ar    1  UNL1        0.1018
      6 C          61.6811   88.1166    9.5001 C.ar    1  UNL1        0.0379
      7 C          62.4128   88.7231   10.6605 C.ar    1  UNL1        0.0640
      8 C          62.7796   87.8748   11.8419 C.ar    1  UNL1        0.0483
      9 C          63.4952   88.7445   12.8328 C.ar    1  UNL1        0.0170
     10 C          63.5707   90.1302   12.2637 C.ar    1  UNL1        0.0376
     11 C          64.2039   91.3204   12.9215 C.3     1  UNL1        0.0500
     12 N          62.9017   90.1170   10.9211 N.ar    1  UNL1       -0.3285
     13 C          62.7485   91.2915   10.0008 C.3     1  UNL1        0.1301
     14 C          63.7890   84.4707   12.8933 C.3     1  UNL1        0.1147
     15 C          64.0091   82.9440   10.3202 C.3     1  UNL1        0.0307
     16 C          63.4451   82.2792   11.5409 C.ar    1  UNL1       -0.0245
     17 C          62.9912   80.8510   11.4750 C.ar    1  UNL1       -0.0045
     18 C          62.4273   80.1863   12.6957 C.ar    1  UNL1       -0.0007
     19 C          62.3172   80.9497   13.9822 C.ar    1  UNL1       -0.0045
     20 C          62.7711   82.3778   14.0481 C.ar    1  UNL1       -0.0245
     21 C          62.6611   83.1411   15.3346 C.3     1  UNL1        0.0307
     22 C          63.3351   83.0426   12.8274 C.ar    1  UNL1       -0.0105
@<TRIPOS>BOND
     1    15    16    1
     2    16    17   ar
     3    17    18   ar
     4    18    19   ar
     5    19    20   ar
     6    20    21    1
     7    20    22   ar
     8    22    14    1
     9    14     1    1
    10     1     3    1
    11     3     4   ar
    12     4     5   ar
    13     5     6   ar
    14     6     7   ar
    15     7     8   ar
    16     8     9   ar
    17     9    10   ar
    18    10    11    1
    19    10    12   ar
    20    12    13    1
    21    22    16   ar
    22     8     3   ar
    23    12     7   ar
    24     1     2    1
@<TRIPOS>MOLECULE
*****
 22 24 0 0 0
SMALL
GASTEIGER

@<TRIPOS>ATOM
      1 N          63.5624   88.7684   13.1552 N.pl3   1  UNL1       -0.3144
      2 H          64.1822   88.5561   13.8901 H       1  UNL1        0.1485
      3 C          63.0234   87.6698   12.2877 C.ar    1  UNL1        0.1301
      4 N          62.3284   88.0029   11.0008 N.ar    1  UNL1       -0.2293
      5 C          61.7894   86.9043   10.1334 C.ar    1  UNL1        0.1018
      6 C          61.9453   85.4726   10.5527 C.ar    1  UNL1        0.0379
      7 C          62.6403   85.1395   11.8396 C.ar    1  UNL1        0.0640
      8 C          63.1793   86.2380   12.7070 C.ar    1  UNL1        0.0483
      9 C          63.8131   85.6085   13.9121 C.ar    1  UNL1        0.0170
     10 C          63.6658   84.1208   13.7893 C.ar    1  UNL1        0.0376
     11 C          64.1571   83.1018   14.7744 C.3     1  UNL1        0.0500
     12 N          62.9409   83.8310   12.5084 N.ar    1  UNL1       -0.3285
     13 C          62.5801   82.4713   11.9878 C.3     1  UNL1        0.1301
     14 C          63.1572   90.1904   12.9030 C.3     1  UNL1        0.1147
     15 C          63.1640   91.2412   10.0930 C.3     1  UNL1        0.0307
     16 C          64.1875   91.7249   11.0771 C.ar    1  UNL1       -0.0245
     17 C          65.2145   92.7340   10.6562 C.ar    1  UNL1       -0.0045
     18 C          66.2380   93.2176   11.6402 C.ar    1  UNL1       -0.0007
     19 C          66.2347   92.6922   13.0452 C.ar    1  UNL1       -0.0045
     20 C          65.2078   91.6832   13.4661 C.ar    1  UNL1       -0.0245
     21 C          65.2044   91.1578   14.8711 C.3     1  UNL1        0.0307
     22 C          64.1841   91.1995   12.4821 C.ar    1  UNL1       -0.0105
@<TRIPOS>BOND
     1    15    16    1
     2    16    17   ar
     3    17    18   ar
     4    18    19   ar
     5    19    20   ar
     6    20    21    1
     7    20    22   ar
     8    22    14    1
     9    14     1    1
    10     1     3    1
    11     3     4   ar
    12     4     5   ar
    13     5     6   ar
    14     6     7   ar
    15     7     8   ar
    16     8     9   ar
    17     9    10   ar
    18    10    11    1
    19    10    12   ar
    20    12    13    1
    21    22    16   ar
    22     8     3   ar
    23    12     7   ar
    24     1     2    1
@<TRIPOS>MOLECULE
*****
 22 24 0 0 0
SMALL
GASTEIGER

@<TRIPOS>ATOM
      1 N          62.4321   85.8991   12.6232 N.pl3   1  UNL1       -0.3144
      2 H          61.7664   85.6837   13.3158 H       1  UNL1        0.1485
      3 C          62.3579   87.2071   11.8925 C.ar    1  UNL1        0.1301
      4 N          63.1436   88.3865   12.3841 N.ar    1  UNL1       -0.2293
      5 C          63.0693   89.6943   11.6534 C.ar    1  UNL1        0.1018
      6 C          62.2093   89.8228   10.4311 C.ar    1  UNL1        0.0379
      7 C          61.4236   88.6434    9.9395 C.ar    1  UNL1        0.0640
      8 C          61.4979   87.3356   10.6702 C.ar    1  UNL1        0.0483
      9 C          60.6172   86.3543    9.9550 C.ar    1  UNL1        0.0170
     10 C          59.9987   87.0557    8.7822 C.ar    1  UNL1        0.0376
     11 C          59.0485   86.4489    7.7927 C.3     1  UNL1        0.0500
     12 N          60.4971   88.4705    8.7727 N.ar    1  UNL1       -0.3285
     13 C          60.1328   89.5268    7.7720 C.3     1  UNL1        0.1301
     14 C          63.5207   84.9195   12.2987 C.3     1  UNL1        0.1147
     15 C          62.4814   83.6452   14.8079 C.3     1  UNL1        0.0307
     16 C          62.7185   82.8096   13.5850 C.ar    1  UNL1       -0.0245
     17 C          62.4361   81.3367   13.6167 C.ar    1  UNL1       -0.0045
     18 C          62.6732   80.5010   12.3939 C.ar    1  UNL1       -0.0007
     19 C          63.1928   81.1382   11.1392 C.ar    1  UNL1       -0.0045
     20 C          63.4753   82.6110   11.1075 C.ar    1  UNL1       -0.0245
     21 C          63.9949   83.2481    9.8529 C.3     1  UNL1        0.0307
     22 C          63.2382   83.4467   12.3304 C.ar    1  UNL1       -0.0105
@<TRIPOS>BOND
     1    15    16    1
     2    16    17   ar
     3    17    18   ar
     4    18    19   ar
     5    19    20   ar
     6    20    21    1
     7    20    22   ar
     8    22    14    1
     9    14     1    1
    10     1     3    1
    11     3     4   ar
    12     4     5   ar
    13     5     6   ar
    14     6     7   ar
    15     7     8   ar
    16     8     9   ar
    17     9    10   ar
    18    10    11    1
    19    10    12   ar
    20    12    13    1
    21    22    16   ar
    22     8     3   ar
    23    12     7   ar
    24     1     2    1
@<TRIPOS>MOLECULE
*****
 22 24 0 0 0
SMALL
GASTEIGER

@<TRIPOS>ATOM
      1 N          62.9601   85.8466   13.1026 N.pl3   1  UNL1       -0.3144
      2 H          62.5570   85.7099   13.9903 H       1  UNL1        0.1485
      3 C          62.7834   87.1558   12.3920 C.ar    1  UNL1        0.1301
      4 N          63.4341   88.3953   12.9306 N.ar    1  UNL1       -0.2293
      5 C          63.2573   89.7044   12.2201 C.ar    1  UNL1        0.1018
      6 C          62.4297   89.7740   10.9710 C.ar    1  UNL1        0.0379
      7 C          61.7789   88.5345   10.4324 C.ar    1  UNL1        0.0640
      8 C          61.9558   87.2254   11.1430 C.ar    1  UNL1        0.0483
      9 C          61.1986   86.1784   10.3809 C.ar    1  UNL1        0.0170
     10 C          60.5539   86.8405    9.1994 C.ar    1  UNL1        0.0376
     11 C          59.7003   86.1651    8.1673 C.3     1  UNL1        0.0500
     12 N          60.9125   88.2967    9.2313 N.ar    1  UNL1       -0.3285
     13 C          60.4806   89.3330    8.2366 C.3     1  UNL1        0.1301
     14 C          63.7511   84.7456   12.4605 C.3     1  UNL1        0.1147
     15 C          64.0301   82.8531   10.1495 C.3     1  UNL1        0.0307
     16 C          63.4427   82.3746   11.4441 C.ar    1  UNL1       -0.0245
     17 C          62.9948   80.9498   11.5832 C.ar    1  UNL1       -0.0045
     18 C          62.4073   80.4713   12.8777 C.ar    1  UNL1       -0.0007
     19 C          62.2678   81.4175   14.0332 C.ar    1  UNL1       -0.0045
     20 C          62.7158   82.8423   13.8942 C.ar    1  UNL1       -0.0245
     21 C          62.5763   83.7885   15.0497 C.3     1  UNL1        0.0307
     22 C          63.3032   83.3209   12.5996 C.ar    1  UNL1       -0.0105
@<TRIPOS>BOND
     1    15    16    1
     2    16    17   ar
     3    17    18   ar
     4    18    19   ar
     5    19    20   ar
     6    20    21    1
     7    20    22   ar
     8    22    14    1
     9    14     1    1
    10     1     3    1
    11     3     4   ar
    12     4     5   ar
    13     5     6   ar
    14     6     7   ar
    15     7     8   ar
    16     8     9   ar
    17     9    10   ar
    18    10    11    1
    19    10    12   ar
    20    12    13    1
    21    22    16   ar
    22     8     3   ar
    23    12     7   ar
    24     1     2    1
@<TRIPOS>MOLECULE
*****
 22 24 0 0 0
SMALL
GASTEIGER

@<TRIPOS>ATOM
      1 N          62.5430   89.6091   12.3205 N.pl3   1  UNL1       -0.3144
      2 H          62.0120   89.8882   13.1011 H       1  UNL1        0.1485
      3 C          62.2997   88.2712   11.6874 C.ar    1  UNL1        0.1301
      4 N          62.8477   87.0289   12.3250 N.ar    1  UNL1       -0.2293
      5 C          62.6043   85.6911   11.6918 C.ar    1  UNL1        0.1018
      6 C          61.8131   85.5955   10.4211 C.ar    1  UNL1        0.0379
      7 C          61.2651   86.8377    9.7835 C.ar    1  UNL1        0.0640
      8 C          61.5084   88.1755   10.4167 C.ar    1  UNL1        0.0483
      9 C          60.8482   89.2187    9.5645 C.ar    1  UNL1        0.0170
     10 C          60.1969   88.5254    8.4047 C.ar    1  UNL1        0.0376
     11 C          59.4236   89.1874    7.3029 C.3     1  UNL1        0.0500
     12 N          60.4545   87.0539    8.5401 N.ar    1  UNL1       -0.3285
     13 C          59.9842   85.9861    7.5975 C.3     1  UNL1        0.1301
     14 C          63.5954   90.5218   11.7642 C.3     1  UNL1        0.1147
     15 C          65.1661   92.8703   10.7556 C.3     1  UNL1        0.0307
     16 C          65.2929   92.4425   12.1877 C.ar    1  UNL1       -0.0245
     17 C          66.2051   93.1889   13.1155 C.ar    1  UNL1       -0.0045
     18 C          66.3319   92.7610   14.5476 C.ar    1  UNL1       -0.0007
     19 C          65.5465   91.5868   15.0519 C.ar    1  UNL1       -0.0045
     20 C          64.6343   90.8404   14.1241 C.ar    1  UNL1       -0.0245
     21 C          63.8490   89.6661   14.6284 C.3     1  UNL1        0.0307
     22 C          64.5075   91.2682   12.6919 C.ar    1  UNL1       -0.0105
@<TRIPOS>BOND
     1    15    16    1
     2    16    17   ar
     3    17    18   ar
     4    18    19   ar
     5    19    20   ar
     6    20    21    1
     7    20    22   ar
     8    22    14    1
     9    14     1    1
    10     1     3    1
    11     3     4   ar
    12     4     5   ar
    13     5     6   ar
    14     6     7   ar
    15     7     8   ar
    16     8     9   ar
    17     9    10   ar
    18    10    11    1
    19    10    12   ar
    20    12    13    1
    21    22    16   ar
    22     8     3   ar
    23    12     7   ar
    24     1     2    1
@<TRIPOS>MOLECULE
*****
 22 24 0 0 0
SMALL
GASTEIGER

@<TRIPOS>ATOM
      1 N          63.2695   85.7015   11.4785 N.pl3   1  UNL1       -0.3144
      2 H          64.1036   85.6104   10.9634 H       1  UNL1        0.1485
      3 C          62.9388   84.7078   12.5524 C.ar    1  UNL1        0.1301
      4 N          62.6719   85.1770   13.9519 N.ar    1  UNL1       -0.2293
      5 C          62.3412   84.1833   15.0257 C.ar    1  UNL1        0.1018
      6 C          62.2775   82.7204   14.7001 C.ar    1  UNL1        0.0379
      7 C          62.5444   82.2513   13.3006 C.ar    1  UNL1        0.0640
      8 C          62.8751   83.2450   12.2267 C.ar    1  UNL1        0.0483
      9 C          63.0889   82.4912   10.9475 C.ar    1  UNL1        0.0170
     10 C          62.8903   81.0317   11.2309 C.ar    1  UNL1        0.0376
     11 C          63.0076   79.9162   10.2348 C.3     1  UNL1        0.0500
     12 N          62.5538   80.8834   12.6851 N.ar    1  UNL1       -0.3285
     13 C          62.2756   79.5937   13.3987 C.3     1  UNL1        0.1301
     14 C          62.3294   86.8340   11.1893 C.3     1  UNL1        0.1147
     15 C          59.7224   88.3181   11.2250 C.3     1  UNL1        0.0307
     16 C          60.1052   87.5034   10.0252 C.ar    1  UNL1       -0.0245
     17 C          59.1846   87.4307    8.8431 C.ar    1  UNL1       -0.0045
     18 C          59.5674   86.6160    7.6433 C.ar    1  UNL1       -0.0007
     19 C          60.8709   85.8739    7.6255 C.ar    1  UNL1       -0.0045
     20 C          61.7915   85.9466    8.8074 C.ar    1  UNL1       -0.0245
     21 C          63.0950   85.2045    8.7896 C.3     1  UNL1        0.0307
     22 C          61.4087   86.7613   10.0073 C.ar    1  UNL1       -0.0105
@<TRIPOS>BOND
     1    15    16    1
     2    16    17   ar
     3    17    18   ar
     4    18    19   ar
     5    19    20   ar
     6    20    21    1
     7    20    22   ar
     8    22    14    1
     9    14     1    1
    10     1     3    1
    11     3     4   ar
    12     4     5   ar
    13     5     6   ar
    14     6     7   ar
    15     7     8   ar
    16     8     9   ar
    17     9    10   ar
    18    10    11    1
    19    10    12   ar
    20    12    13    1
    21    22    16   ar
    22     8     3   ar
    23    12     7   ar
    24     1     2    1
