@<TRIPOS>MOLECULE
*****
 25 27 0 0 0
SMALL
GASTEIGER

@<TRIPOS>ATOM
      1 N          61.3947   89.7351   12.6501 N.pl3   1  UNL1       -0.2150
      2 H          60.5805   89.9823   13.1452 H       1  UNL1        0.1737
      3 C          62.7208   90.3093   13.0529 C.ar    1  UNL1        0.0648
      4 C          63.4985   91.1513   12.0854 C.ar    1  UNL1        0.0159
      5 C          64.8244   91.7253   12.4881 C.ar    1  UNL1        0.0013
      6 C          65.3726   91.4575   13.8584 C.ar    1  UNL1        0.0002
      7 C          64.5949   90.6155   14.8260 C.ar    1  UNL1        0.0013
      8 C          63.2690   90.0414   14.4232 C.ar    1  UNL1        0.0159
      9 C          66.6986   92.0316   14.2612 C.ar    1  UNL1        0.0031
     10 C          67.9316   91.6942   13.4763 C.ar    1  UNL1        0.0207
     11 C          69.2576   92.2683   13.8791 C.ar    1  UNL1        0.0989
     12 N          69.3506   93.1799   15.0667 N.ar    1  UNL1       -0.2423
     13 C          68.1176   93.5174   15.8515 C.ar    1  UNL1        0.0989
     14 C          66.7916   92.9432   15.4487 C.ar    1  UNL1        0.0207
     15 O          60.2176   89.6172   10.8894 O.2     1  UNL1       -0.1499
     16 S          61.3094   88.7844   11.4931 S.O2    1  UNL1        0.0736
     17 O          62.4011   87.9517   12.0968 O.2     1  UNL1       -0.1499
     18 C          61.2241   87.8336   10.3360 C.ar    1  UNL1        0.1268
     19 C          62.3426   86.8692   10.0738 C.ar    1  UNL1        0.0316
     20 C          62.2573   85.9184    8.9168 C.ar    1  UNL1        0.0599
     21 CL         63.3758   84.9539    8.6545 Cl      1  UNL1       -0.0822
     22 C          61.0535   85.9321    8.0220 C.ar    1  UNL1        0.0229
     23 C          59.9350   86.8965    8.2843 C.ar    1  UNL1        0.0599
     24 CL         58.7312   86.9101    7.3894 Cl      1  UNL1       -0.0822
     25 C          60.0203   87.8473    9.4413 C.ar    1  UNL1        0.0316
@<TRIPOS>BOND
     1    15    16    2
     2    16    17    2
     3    16     1    1
     4     1     3    1
     5     3     4   ar
     6     4     5   ar
     7     5     6   ar
     8     6     9    1
     9     9    10   ar
    10    10    11   ar
    11    11    12   ar
    12    12    13   ar
    13    13    14   ar
    14     6     7   ar
    15     7     8   ar
    16    16    18    1
    17    18    19   ar
    18    19    20   ar
    19    20    21    1
    20    20    22   ar
    21    22    23   ar
    22    23    24    1
    23    23    25   ar
    24     8     3   ar
    25    25    18   ar
    26    14     9   ar
    27     1     2    1
@<TRIPOS>MOLECULE
*****
 25 27 0 0 0
SMALL
GASTEIGER

@<TRIPOS>ATOM
      1 N          61.3924   89.7336   12.6535 N.pl3   1  UNL1       -0.2150
      2 H          60.5783   89.9781   13.1503 H       1  UNL1        0.1737
      3 C          62.7182   90.3077   13.0571 C.ar    1  UNL1        0.0648
      4 C          63.4918   91.1581   12.0936 C.ar    1  UNL1        0.0159
      5 C          64.8175   91.7321   12.4972 C.ar    1  UNL1        0.0013
      6 C          65.3696   91.4558   13.8643 C.ar    1  UNL1        0.0002
      7 C          64.5959   90.6055   14.8278 C.ar    1  UNL1        0.0013
      8 C          63.2702   90.0314   14.4242 C.ar    1  UNL1        0.0159
      9 C          66.6953   92.0300   14.2679 C.ar    1  UNL1        0.0031
     10 C          67.9266   91.7029   13.4761 C.ar    1  UNL1        0.0207
     11 C          69.2524   92.2770   13.8797 C.ar    1  UNL1        0.0989
     12 N          69.3468   93.1782   15.0751 N.ar    1  UNL1       -0.2423
     13 C          68.1154   93.5053   15.8669 C.ar    1  UNL1        0.0989
     14 C          66.7897   92.9312   15.4633 C.ar    1  UNL1        0.0207
     15 O          60.1973   89.6073   10.9055 O.2     1  UNL1       -0.1499
     16 S          61.3070   88.7869   11.4932 S.O2    1  UNL1        0.0736
     17 O          62.4166   87.9664   12.0809 O.2     1  UNL1       -0.1499
     18 C          61.2216   87.8401   10.3328 C.ar    1  UNL1        0.1268
     19 C          60.0208   87.8615    9.4342 C.ar    1  UNL1        0.0316
     20 C          59.9354   86.9148    8.2739 C.ar    1  UNL1        0.0599
     21 CL         58.7345   86.9362    7.3753 Cl      1  UNL1       -0.0822
     22 C          61.0508   85.9467    8.0122 C.ar    1  UNL1        0.0229
     23 C          62.2516   85.9253    8.9108 C.ar    1  UNL1        0.0599
     24 CL         63.3671   84.9571    8.6490 Cl      1  UNL1       -0.0822
     25 C          62.3371   86.8720   10.0711 C.ar    1  UNL1        0.0316
@<TRIPOS>BOND
     1    15    16    2
     2    16    17    2
     3    16     1    1
     4     1     3    1
     5     3     4   ar
     6     4     5   ar
     7     5     6   ar
     8     6     9    1
     9     9    10   ar
    10    10    11   ar
    11    11    12   ar
    12    12    13   ar
    13    13    14   ar
    14     6     7   ar
    15     7     8   ar
    16    16    18    1
    17    18    19   ar
    18    19    20   ar
    19    20    21    1
    20    20    22   ar
    21    22    23   ar
    22    23    24    1
    23    23    25   ar
    24     8     3   ar
    25    25    18   ar
    26    14     9   ar
    27     1     2    1
@<TRIPOS>MOLECULE
*****
 25 27 0 0 0
SMALL
GASTEIGER

@<TRIPOS>ATOM
      1 N          63.5798   91.7204   12.5976 N.pl3   1  UNL1       -0.2150
      2 H          62.8453   92.2604   12.9692 H       1  UNL1        0.1737
      3 C          63.6078   90.2373   12.8213 C.ar    1  UNL1        0.0648
      4 C          64.2806   89.6750   14.0382 C.ar    1  UNL1        0.0159
      5 C          64.3087   88.1921   14.2618 C.ar    1  UNL1        0.0013
      6 C          63.6639   87.2715   13.2685 C.ar    1  UNL1        0.0002
      7 C          62.9911   87.8338   12.0515 C.ar    1  UNL1        0.0013
      8 C          62.9630   89.3167   11.8279 C.ar    1  UNL1        0.0159
      9 C          63.6919   85.7884   13.4921 C.ar    1  UNL1        0.0031
     10 C          64.3738   85.2255   14.7038 C.ar    1  UNL1        0.0207
     11 C          64.4018   83.7424   14.9274 C.ar    1  UNL1        0.0989
     12 N          63.7480   82.8225   13.9394 N.ar    1  UNL1       -0.2423
     13 C          63.0661   83.3855   12.7277 C.ar    1  UNL1        0.0989
     14 C          63.0381   84.8685   12.5041 C.ar    1  UNL1        0.0207
     15 O          65.3621   92.7634   13.0827 O.2     1  UNL1       -0.1499
     16 S          64.6708   92.3805   11.8078 S.O2    1  UNL1        0.0736
     17 O          63.9795   91.9976   10.5329 O.2     1  UNL1       -0.1499
     18 C          65.7618   93.0406   11.0178 C.ar    1  UNL1        0.1268
     19 C          65.8274   94.5369   10.9347 C.ar    1  UNL1        0.0316
     20 C          66.9184   95.1971   10.1448 C.ar    1  UNL1        0.0599
     21 CL         66.9839   96.6933   10.0617 Cl      1  UNL1       -0.0822
     22 C          67.9437   94.3610    9.4381 C.ar    1  UNL1        0.0229
     23 C          67.8781   92.8647    9.5212 C.ar    1  UNL1        0.0599
     24 CL         68.9036   92.0286    8.8145 Cl      1  UNL1       -0.0822
     25 C          66.7872   92.2045   10.3111 C.ar    1  UNL1        0.0316
@<TRIPOS>BOND
     1    15    16    2
     2    16    17    2
     3    16     1    1
     4     1     3    1
     5     3     4   ar
     6     4     5   ar
     7     5     6   ar
     8     6     9    1
     9     9    10   ar
    10    10    11   ar
    11    11    12   ar
    12    12    13   ar
    13    13    14   ar
    14     6     7   ar
    15     7     8   ar
    16    16    18    1
    17    18    19   ar
    18    19    20   ar
    19    20    21    1
    20    20    22   ar
    21    22    23   ar
    22    23    24    1
    23    23    25   ar
    24     8     3   ar
    25    25    18   ar
    26    14     9   ar
    27     1     2    1
@<TRIPOS>MOLECULE
*****
 25 27 0 0 0
SMALL
GASTEIGER

@<TRIPOS>ATOM
      1 N          63.5344   91.7155   12.5237 N.pl3   1  UNL1       -0.2150
      2 H          62.7906   92.2537   12.8792 H       1  UNL1        0.1737
      3 C          63.5664   90.2340   12.7566 C.ar    1  UNL1        0.0648
      4 C          64.2381   89.6812   13.9785 C.ar    1  UNL1        0.0159
      5 C          64.2700   88.1997   14.2114 C.ar    1  UNL1        0.0013
      6 C          63.6303   87.2711   13.2223 C.ar    1  UNL1        0.0002
      7 C          62.9586   87.8239   12.0003 C.ar    1  UNL1        0.0013
      8 C          62.9266   89.3053   11.7675 C.ar    1  UNL1        0.0159
      9 C          63.6622   85.7896   13.4552 C.ar    1  UNL1        0.0031
     10 C          63.0108   84.8617   12.4730 C.ar    1  UNL1        0.0207
     11 C          63.0428   83.3802   12.7059 C.ar    1  UNL1        0.0989
     12 N          63.7262   82.8266   13.9210 N.ar    1  UNL1       -0.2423
     13 C          64.3776   83.7546   14.9032 C.ar    1  UNL1        0.0989
     14 C          64.3456   85.2360   14.6703 C.ar    1  UNL1        0.0207
     15 O          63.9581   92.0008   10.4649 O.2     1  UNL1       -0.1499
     16 S          64.6356   92.3769   11.7492 S.O2    1  UNL1        0.0736
     17 O          65.3130   92.7529   13.0336 O.2     1  UNL1       -0.1499
     18 C          65.7369   93.0383   10.9747 C.ar    1  UNL1        0.1268
     19 C          66.7793   92.2036   10.2915 C.ar    1  UNL1        0.0316
     20 C          67.8805   92.8650    9.5171 C.ar    1  UNL1        0.0599
     21 CL         68.9229   92.0303    8.8339 Cl      1  UNL1       -0.0822
     22 C          67.9394   94.3610    9.4258 C.ar    1  UNL1        0.0229
     23 C          66.8970   95.1957   10.1090 C.ar    1  UNL1        0.0599
     24 CL         66.9559   96.6918   10.0177 Cl      1  UNL1       -0.0822
     25 C          65.7957   94.5343   10.8835 C.ar    1  UNL1        0.0316
@<TRIPOS>BOND
     1    15    16    2
     2    16    17    2
     3    16     1    1
     4     1     3    1
     5     3     4   ar
     6     4     5   ar
     7     5     6   ar
     8     6     9    1
     9     9    10   ar
    10    10    11   ar
    11    11    12   ar
    12    12    13   ar
    13    13    14   ar
    14     6     7   ar
    15     7     8   ar
    16    16    18    1
    17    18    19   ar
    18    19    20   ar
    19    20    21    1
    20    20    22   ar
    21    22    23   ar
    22    23    24    1
    23    23    25   ar
    24     8     3   ar
    25    25    18   ar
    26    14     9   ar
    27     1     2    1
@<TRIPOS>MOLECULE
*****
 25 27 0 0 0
SMALL
GASTEIGER

@<TRIPOS>ATOM
      1 N          62.9287   85.6544   16.3166 N.pl3   1  UNL1       -0.2150
      2 H          62.6511   85.5224   17.2519 H       1  UNL1        0.1737
      3 C          63.4446   86.9899   15.8688 C.ar    1  UNL1        0.0648
      4 C          63.1535   88.2171   16.6807 C.ar    1  UNL1        0.0159
      5 C          63.6693   89.5524   16.2328 C.ar    1  UNL1        0.0013
      6 C          64.4762   89.6607   14.9730 C.ar    1  UNL1        0.0002
      7 C          64.7673   88.4335   14.1610 C.ar    1  UNL1        0.0013
      8 C          64.2515   87.0982   14.6089 C.ar    1  UNL1        0.0159
      9 C          64.9920   90.9962   14.5251 C.ar    1  UNL1        0.0031
     10 C          65.6756   91.9031   15.5049 C.ar    1  UNL1        0.0207
     11 C          66.1914   93.2386   15.0571 C.ar    1  UNL1        0.0989
     12 N          66.0236   93.6670   13.6294 N.ar    1  UNL1       -0.2423
     13 C          65.3400   92.7600   12.6496 C.ar    1  UNL1        0.0989
     14 C          64.8242   91.4246   13.0974 C.ar    1  UNL1        0.0207
     15 O          61.3813   84.8195   15.1301 O.2     1  UNL1       -0.1499
     16 S          62.8361   84.5201   15.3395 S.O2    1  UNL1        0.0736
     17 O          64.2908   84.2208   15.5490 O.2     1  UNL1       -0.1499
     18 C          62.7434   83.3858   14.3624 C.ar    1  UNL1        0.1268
     19 C          63.5322   83.4280   13.0873 C.ar    1  UNL1        0.0316
     20 C          63.4396   82.2937   12.1102 C.ar    1  UNL1        0.0599
     21 CL         64.2284   82.3360   10.8350 Cl      1  UNL1       -0.0822
     22 C          62.5582   81.1172   12.4082 C.ar    1  UNL1        0.0229
     23 C          61.7694   81.0750   13.6834 C.ar    1  UNL1        0.0599
     24 CL         60.8879   79.8984   13.9814 Cl      1  UNL1       -0.0822
     25 C          61.8620   82.2093   14.6605 C.ar    1  UNL1        0.0316
@<TRIPOS>BOND
     1    15    16    2
     2    16    17    2
     3    16     1    1
     4     1     3    1
     5     3     4   ar
     6     4     5   ar
     7     5     6   ar
     8     6     9    1
     9     9    10   ar
    10    10    11   ar
    11    11    12   ar
    12    12    13   ar
    13    13    14   ar
    14     6     7   ar
    15     7     8   ar
    16    16    18    1
    17    18    19   ar
    18    19    20   ar
    19    20    21    1
    20    20    22   ar
    21    22    23   ar
    22    23    24    1
    23    23    25   ar
    24     8     3   ar
    25    25    18   ar
    26    14     9   ar
    27     1     2    1
@<TRIPOS>MOLECULE
*****
 25 27 0 0 0
SMALL
GASTEIGER

@<TRIPOS>ATOM
      1 N          62.9310   85.5918   16.2888 N.pl3   1  UNL1       -0.2150
      2 H          62.6448   85.4532   17.2205 H       1  UNL1        0.1737
      3 C          63.4473   86.9315   15.8542 C.ar    1  UNL1        0.0648
      4 C          64.2652   87.0500   14.6025 C.ar    1  UNL1        0.0159
      5 C          64.7814   88.3896   14.1679 C.ar    1  UNL1        0.0013
      6 C          64.4797   89.6108   14.9851 C.ar    1  UNL1        0.0002
      7 C          63.6617   89.4923   16.2368 C.ar    1  UNL1        0.0013
      8 C          63.1455   88.1526   16.6713 C.ar    1  UNL1        0.0159
      9 C          64.9959   90.9504   14.5505 C.ar    1  UNL1        0.0031
     10 C          65.6723   91.8510   15.5412 C.ar    1  UNL1        0.0207
     11 C          66.1885   93.1907   15.1066 C.ar    1  UNL1        0.0989
     12 N          66.0284   93.6297   13.6813 N.ar    1  UNL1       -0.2423
     13 C          65.3520   92.7291   12.6905 C.ar    1  UNL1        0.0989
     14 C          64.8358   91.3895   13.1252 C.ar    1  UNL1        0.0207
     15 O          61.4106   84.7923   15.0442 O.2     1  UNL1       -0.1499
     16 S          62.8509   84.4634   15.3038 S.O2    1  UNL1        0.0736
     17 O          64.2911   84.1345   15.5634 O.2     1  UNL1       -0.1499
     18 C          62.7708   83.3349   14.3188 C.ar    1  UNL1        0.1268
     19 C          61.9230   82.1348   14.6206 C.ar    1  UNL1        0.0316
     20 C          61.8429   81.0063   13.6356 C.ar    1  UNL1        0.0599
     21 CL         60.9952   79.8062   13.9374 Cl      1  UNL1       -0.0822
     22 C          62.6105   81.0780   12.3490 C.ar    1  UNL1        0.0229
     23 C          63.4583   82.2781   12.0472 C.ar    1  UNL1        0.0599
     24 CL         64.2259   82.3497   10.7605 Cl      1  UNL1       -0.0822
     25 C          63.5384   83.4066   13.0321 C.ar    1  UNL1        0.0316
@<TRIPOS>BOND
     1    15    16    2
     2    16    17    2
     3    16     1    1
     4     1     3    1
     5     3     4   ar
     6     4     5   ar
     7     5     6   ar
     8     6     9    1
     9     9    10   ar
    10    10    11   ar
    11    11    12   ar
    12    12    13   ar
    13    13    14   ar
    14     6     7   ar
    15     7     8   ar
    16    16    18    1
    17    18    19   ar
    18    19    20   ar
    19    20    21    1
    20    20    22   ar
    21    22    23   ar
    22    23    24    1
    23    23    25   ar
    24     8     3   ar
    25    25    18   ar
    26    14     9   ar
    27     1     2    1
@<TRIPOS>MOLECULE
*****
 25 27 0 0 0
SMALL
GASTEIGER

@<TRIPOS>ATOM
      1 N          62.3024   89.8204   11.4656 N.pl3   1  UNL1       -0.2150
      2 H          61.5117   90.1902   11.0103 H       1  UNL1        0.1737
      3 C          62.4241   88.3398   11.6734 C.ar    1  UNL1        0.0648
      4 C          63.3630   87.8030   12.7127 C.ar    1  UNL1        0.0159
      5 C          63.4846   86.3225   12.9205 C.ar    1  UNL1        0.0013
      6 C          62.6673   85.3788   12.0890 C.ar    1  UNL1        0.0002
      7 C          61.7284   85.9156   11.0497 C.ar    1  UNL1        0.0013
      8 C          61.6068   87.3961   10.8419 C.ar    1  UNL1        0.0159
      9 C          62.7890   83.8982   12.2968 C.ar    1  UNL1        0.0031
     10 C          63.0978   83.0007   11.1353 C.ar    1  UNL1        0.0207
     11 C          63.2195   81.5201   11.3432 C.ar    1  UNL1        0.0989
     12 N          63.0323   80.9371   12.7125 N.ar    1  UNL1       -0.2423
     13 C          62.7234   81.8346   13.8740 C.ar    1  UNL1        0.0989
     14 C          62.6017   83.3152   13.6661 C.ar    1  UNL1        0.0207
     15 O          63.8148   90.9807   10.5350 O.2     1  UNL1       -0.1499
     16 S          63.3854   90.7374   11.9514 S.O2    1  UNL1        0.0736
     17 O          62.9559   90.4942   13.3679 O.2     1  UNL1       -0.1499
     18 C          64.4684   91.6545   12.4373 C.ar    1  UNL1        0.1268
     19 C          65.0185   91.4969   13.8239 C.ar    1  UNL1        0.0316
     20 C          66.1015   92.4139   14.3099 C.ar    1  UNL1        0.0599
     21 CL         66.6516   92.2563   15.6964 Cl      1  UNL1       -0.0822
     22 C          66.6344   93.4885   13.4092 C.ar    1  UNL1        0.0229
     23 C          66.0843   93.6461   12.0227 C.ar    1  UNL1        0.0599
     24 CL         66.6173   94.7208   11.1220 Cl      1  UNL1       -0.0822
     25 C          65.0013   92.7291   11.5367 C.ar    1  UNL1        0.0316
@<TRIPOS>BOND
     1    15    16    2
     2    16    17    2
     3    16     1    1
     4     1     3    1
     5     3     4   ar
     6     4     5   ar
     7     5     6   ar
     8     6     9    1
     9     9    10   ar
    10    10    11   ar
    11    11    12   ar
    12    12    13   ar
    13    13    14   ar
    14     6     7   ar
    15     7     8   ar
    16    16    18    1
    17    18    19   ar
    18    19    20   ar
    19    20    21    1
    20    20    22   ar
    21    22    23   ar
    22    23    24    1
    23    23    25   ar
    24     8     3   ar
    25    25    18   ar
    26    14     9   ar
    27     1     2    1
@<TRIPOS>MOLECULE
*****
 25 27 0 0 0
SMALL
GASTEIGER

@<TRIPOS>ATOM
      1 N          62.3120   89.8500   11.6070 N.pl3   1  UNL1       -0.2150
      2 H          61.5014   90.2284   11.1959 H       1  UNL1        0.1737
      3 C          62.4451   88.3652   11.7739 C.ar    1  UNL1        0.0648
      4 C          61.6564   87.4383   10.8971 C.ar    1  UNL1        0.0159
      5 C          61.7895   85.9536   11.0640 C.ar    1  UNL1        0.0013
      6 C          62.7113   85.3958   12.1076 C.ar    1  UNL1        0.0002
      7 C          63.5000   86.3227   12.9844 C.ar    1  UNL1        0.0013
      8 C          63.3669   87.8074   12.8175 C.ar    1  UNL1        0.0159
      9 C          62.8444   83.9110   12.2744 C.ar    1  UNL1        0.0031
     10 C          63.1557   83.0479   11.0878 C.ar    1  UNL1        0.0207
     11 C          63.2888   81.5631   11.2547 C.ar    1  UNL1        0.0989
     12 N          63.1106   80.9415   12.6082 N.ar    1  UNL1       -0.2423
     13 C          62.7993   81.8047   13.7948 C.ar    1  UNL1        0.0989
     14 C          62.6662   83.2894   13.6279 C.ar    1  UNL1        0.0207
     15 O          62.9547   90.5973   13.4854 O.2     1  UNL1       -0.1499
     16 S          63.4138   90.7581   12.0665 S.O2    1  UNL1        0.0736
     17 O          63.8730   90.9189   10.6477 O.2     1  UNL1       -0.1499
     18 C          64.5158   91.6662   12.5260 C.ar    1  UNL1        0.1268
     19 C          65.0051   92.7648   11.6295 C.ar    1  UNL1        0.0316
     20 C          66.1070   93.6730   12.0889 C.ar    1  UNL1        0.0599
     21 CL         66.5963   94.7715   11.1925 Cl      1  UNL1       -0.0822
     22 C          66.7195   93.4825   13.4448 C.ar    1  UNL1        0.0229
     23 C          66.2302   92.3839   14.3413 C.ar    1  UNL1        0.0599
     24 CL         66.8428   92.1935   15.6972 Cl      1  UNL1       -0.0822
     25 C          65.1283   91.4758   13.8819 C.ar    1  UNL1        0.0316
@<TRIPOS>BOND
     1    15    16    2
     2    16    17    2
     3    16     1    1
     4     1     3    1
     5     3     4   ar
     6     4     5   ar
     7     5     6   ar
     8     6     9    1
     9     9    10   ar
    10    10    11   ar
    11    11    12   ar
    12    12    13   ar
    13    13    14   ar
    14     6     7   ar
    15     7     8   ar
    16    16    18    1
    17    18    19   ar
    18    19    20   ar
    19    20    21    1
    20    20    22   ar
    21    22    23   ar
    22    23    24    1
    23    23    25   ar
    24     8     3   ar
    25    25    18   ar
    26    14     9   ar
    27     1     2    1
@<TRIPOS>MOLECULE
*****
 25 27 0 0 0
SMALL
GASTEIGER

@<TRIPOS>ATOM
      1 N          63.2006   89.6853   13.3810 N.pl3   1  UNL1       -0.2150
      2 H          62.8822   89.7803   14.3078 H       1  UNL1        0.1737
      3 C          63.9352   90.8143   12.7209 C.ar    1  UNL1        0.0648
      4 C          63.6607   91.1499   11.2849 C.ar    1  UNL1        0.0159
      5 C          64.3953   92.2788   10.6249 C.ar    1  UNL1        0.0013
      6 C          65.4044   93.0723   11.4009 C.ar    1  UNL1        0.0002
      7 C          65.6789   92.7368   12.8368 C.ar    1  UNL1        0.0013
      8 C          64.9443   91.6078   13.4969 C.ar    1  UNL1        0.0159
      9 C          66.1391   94.2014   10.7408 C.ar    1  UNL1        0.0031
     10 C          67.0195   93.9326    9.5565 C.ar    1  UNL1        0.0207
     11 C          67.7541   95.0616    8.8964 C.ar    1  UNL1        0.0989
     12 N          67.6083   96.4594    9.4207 N.ar    1  UNL1       -0.2423
     13 C          66.7278   96.7282   10.6050 C.ar    1  UNL1        0.0989
     14 C          65.9932   95.5992   11.2650 C.ar    1  UNL1        0.0207
     15 O          64.0500   87.7416   13.3993 O.2     1  UNL1       -0.1499
     16 S          62.9510   88.4116   12.6291 S.O2    1  UNL1        0.0736
     17 O          61.8520   89.0817   11.8589 O.2     1  UNL1       -0.1499
     18 C          62.7014   87.1379   11.8771 C.ar    1  UNL1        0.1268
     19 C          63.0115   85.8167   12.5160 C.ar    1  UNL1        0.0316
     20 C          62.7619   84.5430   11.7641 C.ar    1  UNL1        0.0599
     21 CL         63.0720   83.2218   12.4030 Cl      1  UNL1       -0.0822
     22 C          62.2022   84.5906   10.3733 C.ar    1  UNL1        0.0229
     23 C          61.8920   85.9118    9.7344 C.ar    1  UNL1        0.0599
     24 CL         61.3323   85.9593    8.3435 Cl      1  UNL1       -0.0822
     25 C          62.1416   87.1855   10.4863 C.ar    1  UNL1        0.0316
@<TRIPOS>BOND
     1    15    16    2
     2    16    17    2
     3    16     1    1
     4     1     3    1
     5     3     4   ar
     6     4     5   ar
     7     5     6   ar
     8     6     9    1
     9     9    10   ar
    10    10    11   ar
    11    11    12   ar
    12    12    13   ar
    13    13    14   ar
    14     6     7   ar
    15     7     8   ar
    16    16    18    1
    17    18    19   ar
    18    19    20   ar
    19    20    21    1
    20    20    22   ar
    21    22    23   ar
    22    23    24    1
    23    23    25   ar
    24     8     3   ar
    25    25    18   ar
    26    14     9   ar
    27     1     2    1
