@<TRIPOS>MOLECULE
*****
 32 35 0 0 0
SMALL
GASTEIGER

@<TRIPOS>ATOM
      1 C          63.8314   89.5292   13.6569 C.2     1  UNL1        0.2320
      2 O          63.8569   88.0337   13.5433 O.2     1  UNL1       -0.2744
      3 N          62.7193   90.3108   13.0224 N.am    1  UNL1       -0.2625
      4 H          62.7026   91.2923   13.0970 H       1  UNL1        0.1568
      5 C          61.6328   89.5968   12.2742 C.ar    1  UNL1        0.1881
      6 N          60.2043   89.4605   12.7111 N.ar    1  UNL1       -0.1253
      7 N          59.4727   88.6732   11.6646 N.ar    1  UNL1       -0.1395
      8 C          60.4490   88.3229   10.5811 C.ar    1  UNL1        0.1364
      9 S          61.7840   88.8937   10.9578 S.2     1  UNL1       -0.0303
     10 C          60.1439   87.5394    9.3389 C.ar    1  UNL1        0.0477
     11 C          58.8747   87.6083    8.5425 C.ar    1  UNL1        0.1026
     12 N          59.0009   86.6609    7.3865 N.ar    1  UNL1       -0.2269
     13 C          60.3482   86.0065    7.4684 C.ar    1  UNL1        0.1406
     14 N          61.0229   84.9863    6.6001 N.ar    1  UNL1       -0.3374
     15 C          62.4041   84.5091    6.9385 C.ar    1  UNL1        0.0735
     16 C          63.1105   85.0521    8.1452 C.ar    1  UNL1        0.0186
     17 C          62.4358   86.0722    9.0135 C.ar    1  UNL1        0.0046
     18 C          61.0546   86.5494    8.6751 C.ar    1  UNL1        0.0375
     19 H          60.5592   84.6299    5.8081 H       1  UNL1        0.1674
     20 C          64.9179   90.2432   14.4051 C.3     1  UNL1        0.1117
     21 C          65.7403   93.2699   11.9737 C.ar    1  UNL1        0.0641
     22 C          66.4545   94.1994   12.9096 C.ar    1  UNL1        0.0158
     23 C          66.6565   93.8101   14.3440 C.ar    1  UNL1        0.0010
     24 C          66.1443   92.4914   14.8425 C.ar    1  UNL1       -0.0037
     25 C          65.4301   91.5619   13.9066 C.ar    1  UNL1       -0.0118
     26 C          65.2281   91.9511   12.4722 C.ar    1  UNL1        0.0121
     27 N          65.5383   93.6592   10.5391 N.pl3   1  UNL1       -0.2187
     28 H          64.6544   93.5503   10.1193 H       1  UNL1        0.1734
     29 C          67.8275   94.7694    8.9495 C.3     1  UNL1        0.1996
     30 S          66.6829   94.2143    9.7443 S.O2    1  UNL1        0.0558
     31 O          66.0239   95.5618    9.7365 O.2     1  UNL1       -0.1544
     32 O          67.3418   92.8669    9.7521 O.2     1  UNL1       -0.1544
@<TRIPOS>BOND
     1    29    30    1
     2    30    31    2
     3    30    32    2
     4    30    27    1
     5    27    21    1
     6    21    22   ar
     7    22    23   ar
     8    23    24   ar
     9    24    25   ar
    10    25    20    1
    11    20     1    1
    12     1     2    2
    13     1     3   am
    14     3     5    1
    15     5     6   ar
    16     6     7   ar
    17     7     8   ar
    18     8    10    1
    19    10    11   ar
    20    11    12   ar
    21    12    13   ar
    22    13    14   ar
    23    14    15   ar
    24    15    16   ar
    25    16    17   ar
    26    17    18   ar
    27     8     9   ar
    28    25    26   ar
    29    26    21   ar
    30     9     5   ar
    31    18    10   ar
    32    18    13    1
    33    27    28    1
    34     3     4    1
    35    14    19    1
@<TRIPOS>MOLECULE
*****
 32 35 0 0 0
SMALL
GASTEIGER

@<TRIPOS>ATOM
      1 C          63.9724   89.6766   14.8971 C.2     1  UNL1        0.2320
      2 O          62.4975   89.6649   15.1706 O.2     1  UNL1       -0.2744
      3 N          64.7375   88.3871   14.8541 N.am    1  UNL1       -0.2625
      4 H          65.7054   88.3947   14.6746 H       1  UNL1        0.1568
      5 C          64.0277   87.0859   15.0846 C.ar    1  UNL1        0.1881
      6 N          63.2704   86.7016   16.3212 N.ar    1  UNL1       -0.1253
      7 N          62.7253   85.3188   16.1197 N.ar    1  UNL1       -0.1395
      8 C          63.1456   84.8484   14.7589 C.ar    1  UNL1        0.1364
      9 S          63.9505   85.9405   14.1191 S.2     1  UNL1       -0.0303
     10 C          62.8184   83.5192   14.1454 C.ar    1  UNL1        0.0477
     11 C          62.0271   82.4208   14.7915 C.ar    1  UNL1        0.1026
     12 N          61.9448   81.2779   13.8235 N.ar    1  UNL1       -0.2269
     13 C          62.6852   81.6699   12.5793 C.ar    1  UNL1        0.1406
     14 N          62.9375   80.9445   11.2908 N.ar    1  UNL1       -0.3374
     15 C          63.7298   81.6043   10.2014 C.ar    1  UNL1        0.0735
     16 C          64.2697   82.9896   10.4004 C.ar    1  UNL1        0.0186
     17 C          64.0174   83.7150   11.6888 C.ar    1  UNL1        0.0046
     18 C          63.2252   83.0552   12.7782 C.ar    1  UNL1        0.0375
     19 H          62.5832   80.0353   11.1602 H       1  UNL1        0.1674
     20 C          64.6822   90.9778   14.6665 C.3     1  UNL1        0.1117
     21 C          65.9055   93.1721   11.5944 C.ar    1  UNL1        0.0641
     22 C          65.0197   92.6498   10.5024 C.ar    1  UNL1        0.0158
     23 C          64.0215   91.5700   10.7984 C.ar    1  UNL1        0.0010
     24 C          63.9089   91.0128   12.1864 C.ar    1  UNL1       -0.0037
     25 C          64.7947   91.5351   13.2785 C.ar    1  UNL1       -0.0118
     26 C          65.7929   92.6148   12.9825 C.ar    1  UNL1        0.0121
     27 N          66.9038   94.2519   11.2984 N.pl3   1  UNL1       -0.2187
     28 H          67.4342   94.6456   12.0285 H       1  UNL1        0.1734
     29 C          67.2843   95.2118    8.4816 C.3     1  UNL1        0.1996
     30 S          67.0940   94.7318    9.8900 S.O2    1  UNL1        0.0558
     31 O          65.9755   95.7142   10.0737 O.2     1  UNL1       -0.1544
     32 O          68.2125   93.7495    9.7063 O.2     1  UNL1       -0.1544
@<TRIPOS>BOND
     1    29    30    1
     2    30    31    2
     3    30    32    2
     4    30    27    1
     5    27    21    1
     6    21    22   ar
     7    22    23   ar
     8    23    24   ar
     9    24    25   ar
    10    25    20    1
    11    20     1    1
    12     1     2    2
    13     1     3   am
    14     3     5    1
    15     5     6   ar
    16     6     7   ar
    17     7     8   ar
    18     8    10    1
    19    10    11   ar
    20    11    12   ar
    21    12    13   ar
    22    13    14   ar
    23    14    15   ar
    24    15    16   ar
    25    16    17   ar
    26    17    18   ar
    27     8     9   ar
    28    25    26   ar
    29    26    21   ar
    30     9     5   ar
    31    18    10   ar
    32    18    13    1
    33    27    28    1
    34     3     4    1
    35    14    19    1
@<TRIPOS>MOLECULE
*****
 32 35 0 0 0
SMALL
GASTEIGER

@<TRIPOS>ATOM
      1 C          61.8971   87.3686   10.8085 C.2     1  UNL1        0.2320
      2 O          61.3537   88.5844   10.1181 O.2     1  UNL1       -0.2744
      3 N          62.8326   87.5215   11.9710 N.am    1  UNL1       -0.2625
      4 H          63.1892   86.7236   12.4242 H       1  UNL1        0.1568
      5 C          63.2247   88.8903   12.4431 C.ar    1  UNL1        0.1881
      6 N          63.0078   90.1750   11.6999 N.ar    1  UNL1       -0.1253
      7 N          63.5517   91.2933   12.5388 N.ar    1  UNL1       -0.1395
      8 C          64.1046   90.6997   13.8005 C.ar    1  UNL1        0.1364
      9 S          63.9026   89.2145   13.7414 S.2     1  UNL1       -0.0303
     10 C          64.7469   91.4581   14.9240 C.ar    1  UNL1        0.0477
     11 C          64.0915   91.8396   16.2182 C.ar    1  UNL1        0.1026
     12 N          65.0969   92.5853   17.0447 N.ar    1  UNL1       -0.2269
     13 C          66.3736   92.6647   16.2613 C.ar    1  UNL1        0.1406
     14 N          67.7052   93.2814   16.5720 N.ar    1  UNL1       -0.3374
     15 C          68.8204   93.2014   15.5721 C.ar    1  UNL1        0.0735
     16 C          68.6041   92.5047   14.2615 C.ar    1  UNL1        0.0186
     17 C          67.2725   91.8880   13.9507 C.ar    1  UNL1        0.0046
     18 C          66.1573   91.9680   14.9506 C.ar    1  UNL1        0.0375
     19 H          67.8472   93.7387   17.4323 H       1  UNL1        0.1674
     20 C          61.5049   85.9999   10.3364 C.3     1  UNL1        0.1117
     21 C          63.3683   82.9243   12.0150 C.ar    1  UNL1        0.0641
     22 C          64.3106   82.5299   10.9166 C.ar    1  UNL1        0.0158
     23 C          64.3177   83.2922    9.6248 C.ar    1  UNL1        0.0010
     24 C          63.3825   84.4488    9.4314 C.ar    1  UNL1       -0.0037
     25 C          62.4402   84.8432   10.5298 C.ar    1  UNL1       -0.0118
     26 C          62.4331   84.0810   11.8216 C.ar    1  UNL1        0.0121
     27 N          63.3613   82.1620   13.3069 N.pl3   1  UNL1       -0.2187
     28 H          64.1740   82.1253   13.8613 H       1  UNL1        0.1734
     29 C          60.8704   80.7493   14.2014 C.3     1  UNL1        0.1996
     30 S          62.1158   81.4556   13.7542 S.O2    1  UNL1        0.0558
     31 O          61.8623   82.5394   14.7598 O.2     1  UNL1       -0.1544
     32 O          62.3694   80.3720   12.7486 O.2     1  UNL1       -0.1544
@<TRIPOS>BOND
     1    29    30    1
     2    30    31    2
     3    30    32    2
     4    30    27    1
     5    27    21    1
     6    21    22   ar
     7    22    23   ar
     8    23    24   ar
     9    24    25   ar
    10    25    20    1
    11    20     1    1
    12     1     2    2
    13     1     3   am
    14     3     5    1
    15     5     6   ar
    16     6     7   ar
    17     7     8   ar
    18     8    10    1
    19    10    11   ar
    20    11    12   ar
    21    12    13   ar
    22    13    14   ar
    23    14    15   ar
    24    15    16   ar
    25    16    17   ar
    26    17    18   ar
    27     8     9   ar
    28    25    26   ar
    29    26    21   ar
    30     9     5   ar
    31    18    10   ar
    32    18    13    1
    33    27    28    1
    34     3     4    1
    35    14    19    1
@<TRIPOS>MOLECULE
*****
 32 35 0 0 0
SMALL
GASTEIGER

@<TRIPOS>ATOM
      1 C          63.7041   90.1082   15.4099 C.2     1  UNL1        0.2320
      2 O          62.2619   89.7426   15.6012 O.2     1  UNL1       -0.2744
      3 N          64.6022   89.2197   14.6011 N.am    1  UNL1       -0.2625
      4 H          65.5487   89.4596   14.4756 H       1  UNL1        0.1568
      5 C          64.0580   87.9655   13.9837 C.ar    1  UNL1        0.1881
      6 N          63.3573   87.8661   12.6611 N.ar    1  UNL1       -0.1253
      7 N          62.9854   86.4298   12.4406 N.ar    1  UNL1       -0.1395
      8 C          63.4562   85.6415   13.6267 C.ar    1  UNL1        0.1364
      9 S          64.1191   86.5907   14.5804 S.2     1  UNL1       -0.0303
     10 C          63.2927   84.1636   13.8244 C.ar    1  UNL1        0.0477
     11 C          63.1064   83.4653   15.1388 C.ar    1  UNL1        0.1026
     12 N          62.9855   81.9947   14.8692 N.ar    1  UNL1       -0.2269
     13 C          63.0971   81.7842   13.3882 C.ar    1  UNL1        0.1406
     14 N          63.0503   80.5450   12.5442 N.ar    1  UNL1       -0.3374
     15 C          63.1935   80.6464   11.0546 C.ar    1  UNL1        0.0735
     16 C          63.3834   81.9870   10.4089 C.ar    1  UNL1        0.0186
     17 C          63.4301   83.2261   11.2528 C.ar    1  UNL1        0.0046
     18 C          63.2870   83.1247   12.7425 C.ar    1  UNL1        0.0375
     19 H          62.9257   79.6652   12.9680 H       1  UNL1        0.1674
     20 C          64.2481   91.3623   16.0273 C.3     1  UNL1        0.1117
     21 C          67.0930   92.6351   13.5705 C.ar    1  UNL1        0.0641
     22 C          68.1296   93.0961   14.5517 C.ar    1  UNL1        0.0158
     23 C          67.8724   92.9792   16.0248 C.ar    1  UNL1        0.0010
     24 C          66.5786   92.4013   16.5167 C.ar    1  UNL1       -0.0037
     25 C          65.5420   91.9403   15.5354 C.ar    1  UNL1       -0.0118
     26 C          65.7992   92.0572   14.0623 C.ar    1  UNL1        0.0121
     27 N          67.3502   92.7521   12.0972 N.pl3   1  UNL1       -0.2187
     28 H          68.1376   92.3155   11.6988 H       1  UNL1        0.1734
     29 C          65.4653   94.3163   10.3650 C.3     1  UNL1        0.1996
     30 S          66.4078   93.5342   11.2311 S.O2    1  UNL1        0.0558
     31 O          66.1010   92.2940   10.4451 O.2     1  UNL1       -0.1544
     32 O          66.7145   94.7743   12.0171 O.2     1  UNL1       -0.1544
@<TRIPOS>BOND
     1    29    30    1
     2    30    31    2
     3    30    32    2
     4    30    27    1
     5    27    21    1
     6    21    22   ar
     7    22    23   ar
     8    23    24   ar
     9    24    25   ar
    10    25    20    1
    11    20     1    1
    12     1     2    2
    13     1     3   am
    14     3     5    1
    15     5     6   ar
    16     6     7   ar
    17     7     8   ar
    18     8    10    1
    19    10    11   ar
    20    11    12   ar
    21    12    13   ar
    22    13    14   ar
    23    14    15   ar
    24    15    16   ar
    25    16    17   ar
    26    17    18   ar
    27     8     9   ar
    28    25    26   ar
    29    26    21   ar
    30     9     5   ar
    31    18    10   ar
    32    18    13    1
    33    27    28    1
    34     3     4    1
    35    14    19    1
@<TRIPOS>MOLECULE
*****
 32 35 0 0 0
SMALL
GASTEIGER

@<TRIPOS>ATOM
      1 C          62.2598   87.2149   10.6145 C.2     1  UNL1        0.2320
      2 O          61.9734   88.4003    9.7410 O.2     1  UNL1       -0.2744
      3 N          62.8658   87.4129   11.9723 N.am    1  UNL1       -0.2625
      4 H          63.0538   86.6349   12.5456 H       1  UNL1        0.1568
      5 C          63.1854   88.7962   12.4566 C.ar    1  UNL1        0.1881
      6 N          62.8448   90.0770   11.7539 N.ar    1  UNL1       -0.1253
      7 N          63.3506   91.2138   12.5916 N.ar    1  UNL1       -0.1395
      8 C          64.0038   90.6358   13.8119 C.ar    1  UNL1        0.1364
      9 S          63.9017   89.1416   13.7284 S.2     1  UNL1       -0.0303
     10 C          64.6463   91.4150   14.9209 C.ar    1  UNL1        0.0477
     11 C          63.9873   91.8317   16.2024 C.ar    1  UNL1        0.1026
     12 N          64.9943   92.5886   17.0166 N.ar    1  UNL1       -0.2269
     13 C          66.2757   92.6397   16.2384 C.ar    1  UNL1        0.1406
     14 N          67.6105   93.2529   16.5419 N.ar    1  UNL1       -0.3374
     15 C          68.7302   93.1408   15.5502 C.ar    1  UNL1        0.0735
     16 C          68.5151   92.4155   14.2549 C.ar    1  UNL1        0.0186
     17 C          67.1803   91.8023   13.9514 C.ar    1  UNL1        0.0046
     18 C          66.0605   91.9143   14.9432 C.ar    1  UNL1        0.0375
     19 H          67.7516   93.7290   17.3920 H       1  UNL1        0.1674
     20 C          61.9402   85.8317   10.1302 C.3     1  UNL1        0.1117
     21 C          63.5855   83.2030   12.6066 C.ar    1  UNL1        0.0641
     22 C          64.3104   82.3162   11.6380 C.ar    1  UNL1        0.0158
     23 C          64.2452   82.6013   10.1668 C.ar    1  UNL1        0.0010
     24 C          63.4552   83.7731    9.6642 C.ar    1  UNL1       -0.0037
     25 C          62.7303   84.6598   10.6328 C.ar    1  UNL1       -0.0118
     26 C          62.7954   84.3748   12.1040 C.ar    1  UNL1        0.0121
     27 N          63.6507   82.9179   14.0779 N.pl3   1  UNL1       -0.2187
     28 H          63.6347   81.9878   14.4003 H       1  UNL1        0.1734
     29 C          63.8298   85.1820   16.0380 C.3     1  UNL1        0.1996
     30 S          63.7402   84.0499   15.0579 S.O2    1  UNL1        0.0558
     31 O          65.1172   84.3733   14.5586 O.2     1  UNL1       -0.1544
     32 O          62.3633   83.7266   15.5572 O.2     1  UNL1       -0.1544
@<TRIPOS>BOND
     1    29    30    1
     2    30    31    2
     3    30    32    2
     4    30    27    1
     5    27    21    1
     6    21    22   ar
     7    22    23   ar
     8    23    24   ar
     9    24    25   ar
    10    25    20    1
    11    20     1    1
    12     1     2    2
    13     1     3   am
    14     3     5    1
    15     5     6   ar
    16     6     7   ar
    17     7     8   ar
    18     8    10    1
    19    10    11   ar
    20    11    12   ar
    21    12    13   ar
    22    13    14   ar
    23    14    15   ar
    24    15    16   ar
    25    16    17   ar
    26    17    18   ar
    27     8     9   ar
    28    25    26   ar
    29    26    21   ar
    30     9     5   ar
    31    18    10   ar
    32    18    13    1
    33    27    28    1
    34     3     4    1
    35    14    19    1
@<TRIPOS>MOLECULE
*****
 32 35 0 0 0
SMALL
GASTEIGER

@<TRIPOS>ATOM
      1 C          62.1556   86.8470   10.4965 C.2     1  UNL1        0.2320
      2 O          62.7588   87.1373    9.1541 O.2     1  UNL1       -0.2744
      3 N          62.0817   87.9270   11.5349 N.am    1  UNL1       -0.2625
      4 H          61.6858   87.7365   12.4159 H       1  UNL1        0.1568
      5 C          62.6110   89.2972   11.2309 C.ar    1  UNL1        0.1881
      6 N          62.1254   90.2087   10.1430 N.ar    1  UNL1       -0.1253
      7 N          62.9332   91.4712   10.2013 N.ar    1  UNL1       -0.1395
      8 C          63.9180   91.3402   11.3251 C.ar    1  UNL1        0.1364
      9 S          63.7189   89.9965   11.9615 S.2     1  UNL1       -0.0303
     10 C          64.9251   92.3716   11.7398 C.ar    1  UNL1        0.0477
     11 C          65.4596   93.4778   10.8793 C.ar    1  UNL1        0.1026
     12 N          66.4393   94.2677   11.6955 N.ar    1  UNL1       -0.2269
     13 C          66.5102   93.6497   13.0604 C.ar    1  UNL1        0.1406
     14 N          67.3061   94.0026   14.2819 N.ar    1  UNL1       -0.3374
     15 C          67.1661   93.1836   15.5307 C.ar    1  UNL1        0.0735
     16 C          66.2302   92.0117   15.5581 C.ar    1  UNL1        0.0186
     17 C          65.4343   91.6588   14.3366 C.ar    1  UNL1        0.0046
     18 C          65.5744   92.4778   13.0878 C.ar    1  UNL1        0.0375
     19 H          67.9203   94.7718   14.2639 H       1  UNL1        0.1674
     20 C          61.6262   85.4768   10.8004 C.3     1  UNL1        0.1117
     21 C          63.5744   83.6548   13.7389 C.ar    1  UNL1        0.0641
     22 C          64.1965   82.5082   12.9984 C.ar    1  UNL1        0.0158
     23 C          63.9619   82.3513   11.5252 C.ar    1  UNL1        0.0010
     24 C          63.1052   83.3408   10.7926 C.ar    1  UNL1       -0.0037
     25 C          62.4830   84.4873   11.5331 C.ar    1  UNL1       -0.0118
     26 C          62.7176   84.6443   13.0062 C.ar    1  UNL1        0.0121
     27 N          63.8090   83.8118   15.2121 N.pl3   1  UNL1       -0.2187
     28 H          64.1150   83.0436   15.7465 H       1  UNL1        0.1734
     29 C          63.3459   86.4667   16.5302 C.3     1  UNL1        0.1996
     30 S          63.5775   85.1393   15.8712 S.O2    1  UNL1        0.0558
     31 O          62.3045   84.6195   16.4707 O.2     1  UNL1       -0.1544
     32 O          64.8504   85.6589   15.2717 O.2     1  UNL1       -0.1544
@<TRIPOS>BOND
     1    29    30    1
     2    30    31    2
     3    30    32    2
     4    30    27    1
     5    27    21    1
     6    21    22   ar
     7    22    23   ar
     8    23    24   ar
     9    24    25   ar
    10    25    20    1
    11    20     1    1
    12     1     2    2
    13     1     3   am
    14     3     5    1
    15     5     6   ar
    16     6     7   ar
    17     7     8   ar
    18     8    10    1
    19    10    11   ar
    20    11    12   ar
    21    12    13   ar
    22    13    14   ar
    23    14    15   ar
    24    15    16   ar
    25    16    17   ar
    26    17    18   ar
    27     8     9   ar
    28    25    26   ar
    29    26    21   ar
    30     9     5   ar
    31    18    10   ar
    32    18    13    1
    33    27    28    1
    34     3     4    1
    35    14    19    1
@<TRIPOS>MOLECULE
*****
 32 35 0 0 0
SMALL
GASTEIGER

@<TRIPOS>ATOM
      1 C          63.0745   85.7699   16.2613 C.2     1  UNL1        0.2320
      2 O          62.7783   86.3735   17.6022 O.2     1  UNL1       -0.2744
      3 N          63.5503   86.6399   15.1358 N.am    1  UNL1       -0.2625
      4 H          63.7447   86.2438   14.2557 H       1  UNL1        0.1568
      5 C          63.7298   88.1136   15.3512 C.ar    1  UNL1        0.1881
      6 N          62.9689   88.9610   16.3274 N.ar    1  UNL1       -0.1253
      7 N          63.4706   90.3696   16.2078 N.ar    1  UNL1       -0.1395
      8 C          64.5415   90.3927   15.1577 C.ar    1  UNL1        0.1364
      9 S          64.7017   88.9984   14.6283 S.2     1  UNL1       -0.0303
     10 C          65.3162   91.5983   14.7148 C.ar    1  UNL1        0.0477
     11 C          66.1750   92.4642   15.5880 C.ar    1  UNL1        0.1026
     12 N          66.7576   93.5508   14.7337 N.ar    1  UNL1       -0.2269
     13 C          66.2589   93.3565   13.3325 C.ar    1  UNL1        0.1406
     14 N          66.5009   94.1224   12.0657 N.ar    1  UNL1       -0.3374
     15 C          65.8520   93.6816   10.7872 C.ar    1  UNL1        0.0735
     16 C          64.9611   92.4749   10.7755 C.ar    1  UNL1        0.0186
     17 C          64.7191   91.7090   12.0423 C.ar    1  UNL1        0.0046
     18 C          65.3680   92.1497   13.3208 C.ar    1  UNL1        0.0375
     19 H          67.0856   94.9144   12.0734 H       1  UNL1        0.1674
     20 C          62.8950   84.2963   16.0459 C.3     1  UNL1        0.1117
     21 C          62.6916   84.1364   12.0858 C.ar    1  UNL1        0.0641
     22 C          62.5111   82.6630   11.8704 C.ar    1  UNL1        0.0158
     23 C          62.4587   81.7340   13.0470 C.ar    1  UNL1        0.0010
     24 C          62.5866   82.2785   14.4387 C.ar    1  UNL1       -0.0037
     25 C          62.7670   83.7519   14.6540 C.ar    1  UNL1       -0.0118
     26 C          62.8195   84.6809   13.4776 C.ar    1  UNL1        0.0121
     27 N          62.7440   85.0655   10.9092 N.pl3   1  UNL1       -0.2187
     28 H          63.3399   84.8667   10.1512 H       1  UNL1        0.1734
     29 C          61.0331   87.5295   10.8662 C.3     1  UNL1        0.1996
     30 S          61.8886   86.2975   10.8877 S.O2    1  UNL1        0.0558
     31 O          62.7664   86.9253   11.9295 O.2     1  UNL1       -0.1544
     32 O          61.0107   85.6698    9.8460 O.2     1  UNL1       -0.1544
@<TRIPOS>BOND
     1    29    30    1
     2    30    31    2
     3    30    32    2
     4    30    27    1
     5    27    21    1
     6    21    22   ar
     7    22    23   ar
     8    23    24   ar
     9    24    25   ar
    10    25    20    1
    11    20     1    1
    12     1     2    2
    13     1     3   am
    14     3     5    1
    15     5     6   ar
    16     6     7   ar
    17     7     8   ar
    18     8    10    1
    19    10    11   ar
    20    11    12   ar
    21    12    13   ar
    22    13    14   ar
    23    14    15   ar
    24    15    16   ar
    25    16    17   ar
    26    17    18   ar
    27     8     9   ar
    28    25    26   ar
    29    26    21   ar
    30     9     5   ar
    31    18    10   ar
    32    18    13    1
    33    27    28    1
    34     3     4    1
    35    14    19    1
@<TRIPOS>MOLECULE
*****
 32 35 0 0 0
SMALL
GASTEIGER

@<TRIPOS>ATOM
      1 C          62.3792   85.7870   10.5946 C.2     1  UNL1        0.2320
      2 O          62.7919   86.5012    9.3417 O.2     1  UNL1       -0.2744
      3 N          62.2192   86.5512   11.8754 N.am    1  UNL1       -0.2625
      4 H          61.9483   86.0826   12.6977 H       1  UNL1        0.1568
      5 C          62.4721   88.0296   11.9033 C.ar    1  UNL1        0.1881
      6 N          61.6659   89.0755   11.1918 N.ar    1  UNL1       -0.1253
      7 N          62.2712   90.4138   11.4964 N.ar    1  UNL1       -0.1395
      8 C          63.4513   90.1950   12.3960 C.ar    1  UNL1        0.1364
      9 S          63.5755   88.7214   12.6475 S.2     1  UNL1       -0.0303
     10 C          64.3496   91.2623   12.9474 C.ar    1  UNL1        0.0477
     11 C          64.6994   91.4604   14.3925 C.ar    1  UNL1        0.1026
     12 N          65.6217   92.6394   14.4886 N.ar    1  UNL1       -0.2269
     13 C          65.8419   93.1699   13.1030 C.ar    1  UNL1        0.1406
     14 N          66.6568   94.3180   12.5855 N.ar    1  UNL1       -0.3374
     15 C          66.6854   94.6150   11.1155 C.ar    1  UNL1        0.0735
     16 C          65.8992   93.7638   10.1630 C.ar    1  UNL1        0.0186
     17 C          65.0843   92.6157   10.6804 C.ar    1  UNL1        0.0046
     18 C          65.0557   92.3188   12.1504 C.ar    1  UNL1        0.0375
     19 H          67.1729   94.8766   13.2107 H       1  UNL1        0.1674
     20 C          62.1263   84.3088   10.5667 C.3     1  UNL1        0.1117
     21 C          63.7688   83.1860   14.0005 C.ar    1  UNL1        0.0641
     22 C          63.7059   81.6930   13.8701 C.ar    1  UNL1        0.0158
     23 C          63.1164   81.0720   12.6385 C.ar    1  UNL1        0.0010
     24 C          62.5899   81.9439   11.5374 C.ar    1  UNL1       -0.0037
     25 C          62.6529   83.4368   11.6678 C.ar    1  UNL1       -0.0118
     26 C          63.2423   84.0579   12.8993 C.ar    1  UNL1        0.0121
     27 N          64.3583   83.8072   15.2321 N.pl3   1  UNL1       -0.2187
     28 H          64.9723   83.2876   15.7999 H       1  UNL1        0.1734
     29 C          63.6664   86.6328   15.9652 C.3     1  UNL1        0.1996
     30 S          64.0123   85.2200   15.5987 S.O2    1  UNL1        0.0558
     31 O          65.3019   85.6923   14.9953 O.2     1  UNL1       -0.1544
     32 O          62.7229   84.7477   16.2020 O.2     1  UNL1       -0.1544
@<TRIPOS>BOND
     1    29    30    1
     2    30    31    2
     3    30    32    2
     4    30    27    1
     5    27    21    1
     6    21    22   ar
     7    22    23   ar
     8    23    24   ar
     9    24    25   ar
    10    25    20    1
    11    20     1    1
    12     1     2    2
    13     1     3   am
    14     3     5    1
    15     5     6   ar
    16     6     7   ar
    17     7     8   ar
    18     8    10    1
    19    10    11   ar
    20    11    12   ar
    21    12    13   ar
    22    13    14   ar
    23    14    15   ar
    24    15    16   ar
    25    16    17   ar
    26    17    18   ar
    27     8     9   ar
    28    25    26   ar
    29    26    21   ar
    30     9     5   ar
    31    18    10   ar
    32    18    13    1
    33    27    28    1
    34     3     4    1
    35    14    19    1
@<TRIPOS>MOLECULE
*****
 32 35 0 0 0
SMALL
GASTEIGER

@<TRIPOS>ATOM
      1 C          63.6048   89.3301   13.8005 C.2     1  UNL1        0.2320
      2 O          64.0355   88.0722   14.4951 O.2     1  UNL1       -0.2744
      3 N          62.7893   89.2514   12.5440 N.am    1  UNL1       -0.2625
      4 H          62.5066   90.0770   12.0881 H       1  UNL1        0.1568
      5 C          62.4046   87.9149   11.9820 C.ar    1  UNL1        0.1881
      6 N          61.1514   87.6078   11.2170 N.ar    1  UNL1       -0.1253
      7 N          61.1779   86.1539   10.8486 N.ar    1  UNL1       -0.1395
      8 C          62.4473   85.5626   11.3859 C.ar    1  UNL1        0.1364
      9 S          63.2055   86.6509   12.0864 S.2     1  UNL1       -0.0303
     10 C          62.8823   84.1337   11.2472 C.ar    1  UNL1        0.0477
     11 C          63.6026   83.5415   10.0723 C.ar    1  UNL1        0.1026
     12 N          63.8387   82.0880   10.3580 N.ar    1  UNL1       -0.2269
     13 C          63.2644   81.7820   11.7095 C.ar    1  UNL1        0.1406
     14 N          63.2034   80.5154   12.5106 N.ar    1  UNL1       -0.3374
     15 C          62.5512   80.5131   13.8614 C.ar    1  UNL1        0.0735
     16 C          61.9600   81.7774   14.4110 C.ar    1  UNL1        0.0186
     17 C          62.0211   83.0440   13.6098 C.ar    1  UNL1        0.0046
     18 C          62.6733   83.0463   12.2590 C.ar    1  UNL1        0.0375
     19 H          63.5914   79.6855   12.1499 H       1  UNL1        0.1674
     20 C          63.9895   90.6666   14.3625 C.3     1  UNL1        0.1117
     21 C          66.4395   92.5887   11.9023 C.ar    1  UNL1        0.0641
     22 C          67.6257   92.8044   12.7948 C.ar    1  UNL1        0.0158
     23 C          67.5998   92.3074   14.2098 C.ar    1  UNL1        0.0010
     24 C          66.3878   91.5948   14.7323 C.ar    1  UNL1       -0.0037
     25 C          65.2016   91.3792   13.8399 C.ar    1  UNL1       -0.0118
     26 C          65.2275   91.8761   12.4249 C.ar    1  UNL1        0.0121
     27 N          66.4654   93.0857   10.4872 N.pl3   1  UNL1       -0.2187
     28 H          66.2360   92.4776    9.7477 H       1  UNL1        0.1734
     29 C          67.2164   95.9324    9.9106 C.3     1  UNL1        0.1996
     30 S          66.8409   94.5090   10.1989 S.O2    1  UNL1        0.0558
     31 O          65.5192   94.9673   10.7403 O.2     1  UNL1       -0.1544
     32 O          68.1625   94.0508    9.6575 O.2     1  UNL1       -0.1544
@<TRIPOS>BOND
     1    29    30    1
     2    30    31    2
     3    30    32    2
     4    30    27    1
     5    27    21    1
     6    21    22   ar
     7    22    23   ar
     8    23    24   ar
     9    24    25   ar
    10    25    20    1
    11    20     1    1
    12     1     2    2
    13     1     3   am
    14     3     5    1
    15     5     6   ar
    16     6     7   ar
    17     7     8   ar
    18     8    10    1
    19    10    11   ar
    20    11    12   ar
    21    12    13   ar
    22    13    14   ar
    23    14    15   ar
    24    15    16   ar
    25    16    17   ar
    26    17    18   ar
    27     8     9   ar
    28    25    26   ar
    29    26    21   ar
    30     9     5   ar
    31    18    10   ar
    32    18    13    1
    33    27    28    1
    34     3     4    1
    35    14    19    1
