@<TRIPOS>MOLECULE
*****
 26 28 0 0 0
SMALL
GASTEIGER

@<TRIPOS>ATOM
      1 C          63.0319   84.7441   10.3742 C.3     1  UNL1        0.2094
      2 C          62.6265   85.2048   11.7429 C.2     1  UNL1        0.0896
      3 N          61.8216   86.4603   11.9038 N.2     1  UNL1       -0.2256
      4 C          61.4223   87.2552   10.6960 C.2     1  UNL1        0.1817
      5 N          61.8277   86.7945    9.3274 N.am    1  UNL1       -0.1534
      6 C          62.6325   85.5389    9.1664 C.2     1  UNL1        0.2669
      7 O          63.0380   85.0783    7.7977 O.2     1  UNL1       -0.2714
      8 C          63.0258   84.4100   12.9507 C.ar    1  UNL1        0.0446
      9 C          62.4980   83.0583   13.3307 C.ar    1  UNL1        0.0082
     10 C          63.1691   82.6401   14.6054 C.ar    1  UNL1        0.0075
     11 C          64.1116   83.7335   15.0132 C.ar    1  UNL1        0.0355
     12 S          64.0231   84.8273   13.9906 S.2     1  UNL1       -0.0852
     13 N          64.6416   82.2330   10.0523 N.1     1  UNL1       -0.1950
     14 C          63.8367   83.4886   10.2133 C.1     1  UNL1        0.0877
     15 S          60.6174   88.5107   10.8570 S.3     1  UNL1       -0.0734
     16 C          61.1587   89.8176   10.3581 C.3     1  UNL1        0.0911
     17 C          62.3824   90.4127   10.9894 C.ar    1  UNL1       -0.0112
     18 C          63.2173   91.3972   10.2253 C.ar    1  UNL1       -0.0034
     19 C          64.4409   91.9922   10.8566 C.ar    1  UNL1       -0.0006
     20 C          64.8297   91.6027   12.2521 C.ar    1  UNL1       -0.0039
     21 C          63.9948   90.6183   13.0162 C.ar    1  UNL1       -0.0169
     22 C          62.7711   90.0233   12.3848 C.ar    1  UNL1       -0.0073
     23 C          64.3836   90.2289   14.4116 C.3     1  UNL1        0.0679
     24 C          63.4361   90.4701   15.5491 C.2     1  UNL1        0.0547
     25 O          62.3586   89.4716   15.8524 O.co2   1  UNL1       -0.5488
     26 O          63.5660   91.7100   16.3834 O.co2   1  UNL1       -0.5488
@<TRIPOS>UNITY_ATOM_ATTR
25 1
charge -1
@<TRIPOS>BOND
     1    13    14    3
     2    14     1    1
     3     1     2    1
     4     2     8    1
     5     8     9   ar
     6     9    10   ar
     7    10    11   ar
     8    11    12   ar
     9     2     3    2
    10     3     4    1
    11     4    15    1
    12    15    16    1
    13    16    17    1
    14    17    18   ar
    15    18    19   ar
    16    19    20   ar
    17    20    21   ar
    18    21    23    1
    19    23    24    1
    20    24    25   ar
    21    24    26   ar
    22    21    22   ar
    23     4     5    2
    24     5     6    1
    25     6     7    2
    26     6     1    1
    27    12     8   ar
    28    22    17   ar
@<TRIPOS>MOLECULE
*****
 26 28 0 0 0
SMALL
GASTEIGER

@<TRIPOS>ATOM
      1 C          65.4132   91.9658   12.8617 C.3     1  UNL1        0.2094
      2 C          65.1838   92.2784   11.4127 C.2     1  UNL1        0.0896
      3 N          64.0339   91.6500   10.6827 N.2     1  UNL1       -0.2256
      4 C          63.1134   90.7090   11.4018 C.2     1  UNL1        0.1817
      5 N          63.3428   90.3963   12.8507 N.am    1  UNL1       -0.1534
      6 C          64.4927   91.0247   13.5807 C.2     1  UNL1        0.2669
      7 O          64.7221   90.7120   15.0297 O.2     1  UNL1       -0.2714
      8 C          66.1043   93.2195   10.6936 C.ar    1  UNL1        0.0446
      9 C          67.3384   92.8358    9.9320 C.ar    1  UNL1        0.0082
     10 C          67.9492   94.0886    9.3775 C.ar    1  UNL1        0.0075
     11 C          67.0926   95.2466    9.7965 C.ar    1  UNL1        0.0355
     12 S          65.9525   94.7094   10.6098 S.2     1  UNL1       -0.0852
     13 N          67.7131   93.2226   14.3215 N.1     1  UNL1       -0.1950
     14 C          66.5631   92.5942   13.5916 C.1     1  UNL1        0.0877
     15 S          61.9635   90.0806   10.6718 S.3     1  UNL1       -0.0734
     16 C          61.3698   88.7968   11.1711 C.3     1  UNL1        0.0911
     17 C          61.8669   87.4845   10.6410 C.ar    1  UNL1       -0.0112
     18 C          61.9290   87.2486    9.1610 C.ar    1  UNL1       -0.0034
     19 C          62.4261   85.9363    8.6309 C.ar    1  UNL1       -0.0006
     20 C          62.8609   84.8600    9.5810 C.ar    1  UNL1       -0.0039
     21 C          62.7988   85.0960   11.0610 C.ar    1  UNL1       -0.0169
     22 C          62.3017   86.4082   11.5910 C.ar    1  UNL1       -0.0073
     23 C          63.2336   84.0197   12.0109 C.3     1  UNL1        0.0679
     24 C          63.6362   82.6735   11.4857 C.2     1  UNL1        0.0547
     25 O          64.9265   82.5157   10.7373 O.co2   1  UNL1       -0.5488
     26 O          62.7485   81.4852   11.7090 O.co2   1  UNL1       -0.5488
@<TRIPOS>UNITY_ATOM_ATTR
25 1
charge -1
@<TRIPOS>BOND
     1    13    14    3
     2    14     1    1
     3     1     2    1
     4     2     8    1
     5     8     9   ar
     6     9    10   ar
     7    10    11   ar
     8    11    12   ar
     9     2     3    2
    10     3     4    1
    11     4    15    1
    12    15    16    1
    13    16    17    1
    14    17    18   ar
    15    18    19   ar
    16    19    20   ar
    17    20    21   ar
    18    21    23    1
    19    23    24    1
    20    24    25   ar
    21    24    26   ar
    22    21    22   ar
    23     4     5    2
    24     5     6    1
    25     6     7    2
    26     6     1    1
    27    12     8   ar
    28    22    17   ar
@<TRIPOS>MOLECULE
*****
 26 28 0 0 0
SMALL
GASTEIGER

@<TRIPOS>ATOM
      1 C          63.0759   84.5682   10.1457 C.3     1  UNL1        0.2094
      2 C          62.4233   85.5886   11.0305 C.2     1  UNL1        0.0896
      3 N          62.4474   85.4148   12.5202 N.2     1  UNL1       -0.2256
      4 C          63.1241   84.2206   13.1251 C.2     1  UNL1        0.1817
      5 N          63.7767   83.2002   12.2402 N.am    1  UNL1       -0.1534
      6 C          63.7526   83.3740   10.7505 C.2     1  UNL1        0.2669
      7 O          64.4052   82.3536    9.8657 O.2     1  UNL1       -0.2714
      8 C          61.7466   86.7829   10.4256 C.ar    1  UNL1        0.0446
      9 C          62.3187   88.1662   10.3302 C.ar    1  UNL1        0.0082
     10 C          61.3047   89.0417    9.6556 C.ar    1  UNL1        0.0075
     11 C          60.1058   88.1995    9.3340 C.ar    1  UNL1        0.0355
     12 S          60.3789   86.8035    9.8099 S.2     1  UNL1       -0.0852
     13 N          63.0276   84.9158    7.1663 N.1     1  UNL1       -0.1950
     14 C          63.0518   84.7420    8.6560 C.1     1  UNL1        0.0877
     15 S          63.1483   84.0468   14.6148 S.3     1  UNL1       -0.0734
     16 C          64.1307   84.8193   15.4442 C.3     1  UNL1        0.0911
     17 C          63.8626   86.2567   15.7792 C.ar    1  UNL1       -0.0112
     18 C          63.1316   86.6090   17.0407 C.ar    1  UNL1       -0.0034
     19 C          62.8636   88.0464   17.3757 C.ar    1  UNL1       -0.0006
     20 C          63.3266   89.1314   16.4491 C.ar    1  UNL1       -0.0039
     21 C          64.0576   88.7790   15.1876 C.ar    1  UNL1       -0.0169
     22 C          64.3256   87.3416   14.8526 C.ar    1  UNL1       -0.0073
     23 C          64.5206   89.8639   14.2611 C.3     1  UNL1        0.0679
     24 C          63.6199   90.3479   13.1636 C.2     1  UNL1        0.0547
     25 O          64.1686   91.2183   12.0721 O.co2   1  UNL1       -0.5488
     26 O          62.1705   89.9615   13.1576 O.co2   1  UNL1       -0.5488
@<TRIPOS>UNITY_ATOM_ATTR
25 1
charge -1
@<TRIPOS>BOND
     1    13    14    3
     2    14     1    1
     3     1     2    1
     4     2     8    1
     5     8     9   ar
     6     9    10   ar
     7    10    11   ar
     8    11    12   ar
     9     2     3    2
    10     3     4    1
    11     4    15    1
    12    15    16    1
    13    16    17    1
    14    17    18   ar
    15    18    19   ar
    16    19    20   ar
    17    20    21   ar
    18    21    23    1
    19    23    24    1
    20    24    25   ar
    21    24    26   ar
    22    21    22   ar
    23     4     5    2
    24     5     6    1
    25     6     7    2
    26     6     1    1
    27    12     8   ar
    28    22    17   ar
@<TRIPOS>MOLECULE
*****
 26 28 0 0 0
SMALL
GASTEIGER

@<TRIPOS>ATOM
      1 C          63.2255   84.9177   12.7881 C.3     1  UNL1        0.2094
      2 C          62.9120   86.1921   12.0617 C.2     1  UNL1        0.0896
      3 N          63.2686   87.5130   12.6765 N.2     1  UNL1       -0.2256
      4 C          63.9387   87.5596   14.0177 C.2     1  UNL1        0.1817
      5 N          64.2522   86.2852   14.7440 N.am    1  UNL1       -0.1534
      6 C          63.8956   84.9643   14.1293 C.2     1  UNL1        0.2669
      7 O          64.2092   83.6898   14.8557 O.2     1  UNL1       -0.2714
      8 C          62.2418   86.1456   10.7205 C.ar    1  UNL1        0.0446
      9 C          62.7993   85.5174    9.4777 C.ar    1  UNL1        0.0082
     10 C          61.7986   85.7026    8.3757 C.ar    1  UNL1        0.0075
     11 C          60.6227   86.4453    8.9376 C.ar    1  UNL1        0.0355
     12 S          60.8966   86.7190   10.3867 S.2     1  UNL1       -0.0852
     13 N          62.5123   82.2758   11.5585 N.1     1  UNL1       -0.1950
     14 C          62.8689   83.5968   12.1733 C.1     1  UNL1        0.0877
     15 S          64.2954   88.8805   14.6325 S.3     1  UNL1       -0.0734
     16 C          63.7640   90.1516   14.0394 C.3     1  UNL1        0.0911
     17 C          64.6946   91.2933   13.7555 C.ar    1  UNL1       -0.0112
     18 C          65.5659   91.8400   14.8474 C.ar    1  UNL1       -0.0034
     19 C          66.4965   92.9816   14.5635 C.ar    1  UNL1       -0.0006
     20 C          66.5559   93.5765   13.1877 C.ar    1  UNL1       -0.0039
     21 C          65.6847   93.0298   12.0959 C.ar    1  UNL1       -0.0169
     22 C          64.7540   91.8882   12.3798 C.ar    1  UNL1       -0.0073
     23 C          65.7441   93.6247   10.7203 C.3     1  UNL1        0.0679
     24 C          66.6868   94.7552   10.4321 C.2     1  UNL1        0.0547
     25 O          66.3199   96.1561   10.8231 O.co2   1  UNL1       -0.5488
     26 O          67.9967   94.4849    9.7528 O.co2   1  UNL1       -0.5488
@<TRIPOS>UNITY_ATOM_ATTR
25 1
charge -1
@<TRIPOS>BOND
     1    13    14    3
     2    14     1    1
     3     1     2    1
     4     2     8    1
     5     8     9   ar
     6     9    10   ar
     7    10    11   ar
     8    11    12   ar
     9     2     3    2
    10     3     4    1
    11     4    15    1
    12    15    16    1
    13    16    17    1
    14    17    18   ar
    15    18    19   ar
    16    19    20   ar
    17    20    21   ar
    18    21    23    1
    19    23    24    1
    20    24    25   ar
    21    24    26   ar
    22    21    22   ar
    23     4     5    2
    24     5     6    1
    25     6     7    2
    26     6     1    1
    27    12     8   ar
    28    22    17   ar
@<TRIPOS>MOLECULE
*****
 26 28 0 0 0
SMALL
GASTEIGER

@<TRIPOS>ATOM
      1 C          63.1232   85.1338   12.2950 C.3     1  UNL1        0.2094
      2 C          62.7584   86.2935   11.4165 C.2     1  UNL1        0.0896
      3 N          62.9731   87.6972   11.8996 N.2     1  UNL1       -0.2256
      4 C          63.5527   87.9412   13.2614 C.2     1  UNL1        0.1817
      5 N          63.9175   86.7815   14.1400 N.am    1  UNL1       -0.1534
      6 C          63.7028   85.3778   13.6568 C.2     1  UNL1        0.2669
      7 O          64.0676   84.2181   14.5355 O.2     1  UNL1       -0.2714
      8 C          62.1788   86.0495   10.0546 C.ar    1  UNL1        0.0446
      9 C          62.8695   85.3659    8.9120 C.ar    1  UNL1        0.0082
     10 C          61.9244   85.3401    7.7475 C.ar    1  UNL1        0.0075
     11 C          60.6495   86.0079    8.1704 C.ar    1  UNL1        0.0355
     12 S          60.8067   86.4463    9.5963 S.2     1  UNL1       -0.0852
     13 N          62.6937   82.3263   11.3287 N.1     1  UNL1       -0.1950
     14 C          62.9084   83.7301   11.8119 C.1     1  UNL1        0.0877
     15 S          63.7675   89.3449   13.7446 S.3     1  UNL1       -0.0734
     16 C          63.4376   90.5042   12.8518 C.3     1  UNL1        0.0911
     17 C          64.4552   91.5799   12.6125 C.ar    1  UNL1       -0.0112
     18 C          64.6223   92.1625   11.2403 C.ar    1  UNL1       -0.0034
     19 C          65.6399   93.2382   11.0011 C.ar    1  UNL1       -0.0006
     20 C          66.4904   93.7314   12.1340 C.ar    1  UNL1       -0.0039
     21 C          66.3234   93.1488   13.5060 C.ar    1  UNL1       -0.0169
     22 C          65.3057   92.0731   13.7453 C.ar    1  UNL1       -0.0073
     23 C          67.1739   93.6420   14.6389 C.3     1  UNL1        0.0679
     24 C          68.3357   92.8222   15.1166 C.2     1  UNL1        0.0547
     25 O          68.3245   92.2394   16.4987 O.co2   1  UNL1       -0.5488
     26 O          69.5087   92.5852   14.2121 O.co2   1  UNL1       -0.5488
@<TRIPOS>UNITY_ATOM_ATTR
25 1
charge -1
@<TRIPOS>BOND
     1    13    14    3
     2    14     1    1
     3     1     2    1
     4     2     8    1
     5     8     9   ar
     6     9    10   ar
     7    10    11   ar
     8    11    12   ar
     9     2     3    2
    10     3     4    1
    11     4    15    1
    12    15    16    1
    13    16    17    1
    14    17    18   ar
    15    18    19   ar
    16    19    20   ar
    17    20    21   ar
    18    21    23    1
    19    23    24    1
    20    24    25   ar
    21    24    26   ar
    22    21    22   ar
    23     4     5    2
    24     5     6    1
    25     6     7    2
    26     6     1    1
    27    12     8   ar
    28    22    17   ar
@<TRIPOS>MOLECULE
*****
 26 28 0 0 0
SMALL
GASTEIGER

@<TRIPOS>ATOM
      1 C          63.9902   90.9774   12.3704 C.3     1  UNL1        0.2094
      2 C          63.1808   89.8051   12.8397 C.2     1  UNL1        0.0896
      3 N          62.2070   89.1452   11.9089 N.2     1  UNL1       -0.2256
      4 C          62.0426   89.6578   10.5088 C.2     1  UNL1        0.1817
      5 N          62.8521   90.8302   10.0396 N.am    1  UNL1       -0.1534
      6 C          63.8259   91.4900   10.9704 C.2     1  UNL1        0.2669
      7 O          64.6354   92.6624   10.5010 O.2     1  UNL1       -0.2714
      8 C          63.3451   89.2924   14.2398 C.ar    1  UNL1        0.0446
      9 C          62.8440   89.9584   15.4870 C.ar    1  UNL1        0.0082
     10 C          63.2285   89.1015   16.6566 C.ar    1  UNL1        0.0075
     11 C          63.9673   87.9059   16.1322 C.ar    1  UNL1        0.0355
     12 S          64.0393   88.0239   14.6385 S.2     1  UNL1       -0.0852
     13 N          65.9378   92.2971   14.2320 N.1     1  UNL1       -0.1950
     14 C          64.9640   91.6373   13.3012 C.1     1  UNL1        0.0877
     15 S          61.0688   88.9980    9.5781 S.3     1  UNL1       -0.0734
     16 C          60.5759   87.6113    9.8681 C.3     1  UNL1        0.0911
     17 C          61.5330   86.4564    9.8519 C.ar    1  UNL1       -0.0112
     18 C          62.2729   86.1130    8.5930 C.ar    1  UNL1       -0.0034
     19 C          63.2299   84.9581    8.5769 C.ar    1  UNL1       -0.0006
     20 C          63.4471   84.1467    9.8197 C.ar    1  UNL1       -0.0039
     21 C          62.7073   84.4901   11.0785 C.ar    1  UNL1       -0.0169
     22 C          61.7502   85.6450   11.0946 C.ar    1  UNL1       -0.0073
     23 C          62.9246   83.6787   12.3212 C.3     1  UNL1        0.0679
     24 C          63.3106   84.3572   13.6021 C.2     1  UNL1        0.0547
     25 O          64.7587   84.5226   13.9563 O.co2   1  UNL1       -0.5488
     26 O          62.2484   84.8703   14.5287 O.co2   1  UNL1       -0.5488
@<TRIPOS>UNITY_ATOM_ATTR
25 1
charge -1
@<TRIPOS>BOND
     1    13    14    3
     2    14     1    1
     3     1     2    1
     4     2     8    1
     5     8     9   ar
     6     9    10   ar
     7    10    11   ar
     8    11    12   ar
     9     2     3    2
    10     3     4    1
    11     4    15    1
    12    15    16    1
    13    16    17    1
    14    17    18   ar
    15    18    19   ar
    16    19    20   ar
    17    20    21   ar
    18    21    23    1
    19    23    24    1
    20    24    25   ar
    21    24    26   ar
    22    21    22   ar
    23     4     5    2
    24     5     6    1
    25     6     7    2
    26     6     1    1
    27    12     8   ar
    28    22    17   ar
@<TRIPOS>MOLECULE
*****
 26 28 0 0 0
SMALL
GASTEIGER

@<TRIPOS>ATOM
      1 C          62.9594   82.4042   12.4353 C.3     1  UNL1        0.2094
      2 C          62.8355   83.8893   12.2648 C.2     1  UNL1        0.0896
      3 N          62.7648   84.7793   13.4701 N.2     1  UNL1       -0.2256
      4 C          62.8181   84.1843   14.8459 C.2     1  UNL1        0.1817
      5 N          62.9421   82.6992   15.0165 N.am    1  UNL1       -0.1534
      6 C          63.0127   81.8092   13.8111 C.2     1  UNL1        0.2669
      7 O          63.1367   80.3240   13.9817 O.2     1  UNL1       -0.2714
      8 C          62.7822   84.4844   10.8888 C.ar    1  UNL1        0.0446
      9 C          63.6395   84.0888    9.7233 C.ar    1  UNL1        0.0082
     10 C          63.2495   84.9394    8.5510 C.ar    1  UNL1        0.0075
     11 C          62.1510   85.8608    8.9921 C.ar    1  UNL1        0.0355
     12 S          61.8622   85.5796   10.4369 S.2     1  UNL1       -0.0852
     13 N          63.1007   80.6241   10.0246 N.1     1  UNL1       -0.1950
     14 C          63.0301   81.5142   11.2299 C.1     1  UNL1        0.0877
     15 S          62.7475   85.0743   16.0513 S.3     1  UNL1       -0.0734
     16 C          63.8656   86.0303   16.3442 C.3     1  UNL1        0.0911
     17 C          63.7039   87.4899   16.0385 C.ar    1  UNL1       -0.0112
     18 C          63.2021   88.4269   17.0970 C.ar    1  UNL1       -0.0034
     19 C          63.0405   89.8865   16.7912 C.ar    1  UNL1       -0.0006
     20 C          63.3805   90.4091   15.4269 C.ar    1  UNL1       -0.0039
     21 C          63.8823   89.4721   14.3684 C.ar    1  UNL1       -0.0169
     22 C          64.0439   88.0126   14.6742 C.ar    1  UNL1       -0.0073
     23 C          64.2223   89.9948   13.0042 C.3     1  UNL1        0.0679
     24 C          63.1460   90.1510   11.9712 C.2     1  UNL1        0.0547
     25 O          63.4127   90.9401   10.7237 O.co2   1  UNL1       -0.5488
     26 O          61.8030   89.5183   12.1857 O.co2   1  UNL1       -0.5488
@<TRIPOS>UNITY_ATOM_ATTR
25 1
charge -1
@<TRIPOS>BOND
     1    13    14    3
     2    14     1    1
     3     1     2    1
     4     2     8    1
     5     8     9   ar
     6     9    10   ar
     7    10    11   ar
     8    11    12   ar
     9     2     3    2
    10     3     4    1
    11     4    15    1
    12    15    16    1
    13    16    17    1
    14    17    18   ar
    15    18    19   ar
    16    19    20   ar
    17    20    21   ar
    18    21    23    1
    19    23    24    1
    20    24    25   ar
    21    24    26   ar
    22    21    22   ar
    23     4     5    2
    24     5     6    1
    25     6     7    2
    26     6     1    1
    27    12     8   ar
    28    22    17   ar
@<TRIPOS>MOLECULE
*****
 26 28 0 0 0
SMALL
GASTEIGER

@<TRIPOS>ATOM
      1 C          64.9450   91.5126   12.9721 C.3     1  UNL1        0.2094
      2 C          65.6706   91.0770   14.2105 C.2     1  UNL1        0.0896
      3 N          65.2678   89.8129   14.9103 N.2     1  UNL1       -0.2256
      4 C          64.1393   88.9844   14.3717 C.2     1  UNL1        0.1817
      5 N          63.4137   89.4200   13.1333 N.am    1  UNL1       -0.1534
      6 C          63.8165   90.6841   12.4335 C.2     1  UNL1        0.2669
      7 O          63.0908   91.1197   11.1950 O.2     1  UNL1       -0.2714
      8 C          66.7991   91.9055   14.7491 C.ar    1  UNL1        0.0446
      9 C          66.7409   92.7984   15.9531 C.ar    1  UNL1        0.0082
     10 C          68.0897   93.4313   16.1265 C.ar    1  UNL1        0.0075
     11 C          68.9816   92.9296   15.0296 C.ar    1  UNL1        0.0355
     12 S          68.1839   91.9867   14.1784 S.2     1  UNL1       -0.0852
     13 N          65.7507   94.0409   11.5725 N.1     1  UNL1       -0.1950
     14 C          65.3478   92.7767   12.2723 C.1     1  UNL1        0.0877
     15 S          63.7365   87.7203   15.0715 S.3     1  UNL1       -0.0734
     16 C          64.4694   86.4418   14.7917 C.3     1  UNL1        0.0911
     17 C          63.8839   85.4325   13.8492 C.ar    1  UNL1       -0.0112
     18 C          63.1450   85.8887   12.6261 C.ar    1  UNL1       -0.0034
     19 C          62.5594   84.8793   11.6836 C.ar    1  UNL1       -0.0006
     20 C          62.7127   83.4137   11.9642 C.ar    1  UNL1       -0.0039
     21 C          63.4516   82.9576   13.1873 C.ar    1  UNL1       -0.0169
     22 C          64.0372   83.9670   14.1298 C.ar    1  UNL1       -0.0073
     23 C          63.6049   81.4921   13.4679 C.3     1  UNL1        0.0679
     24 C          62.4194   80.5796   13.3591 C.2     1  UNL1        0.0547
     25 O          62.4749   79.3821   12.4576 O.co2   1  UNL1       -0.5488
     26 O          61.1783   80.8647   14.1520 O.co2   1  UNL1       -0.5488
@<TRIPOS>UNITY_ATOM_ATTR
25 1
charge -1
@<TRIPOS>BOND
     1    13    14    3
     2    14     1    1
     3     1     2    1
     4     2     8    1
     5     8     9   ar
     6     9    10   ar
     7    10    11   ar
     8    11    12   ar
     9     2     3    2
    10     3     4    1
    11     4    15    1
    12    15    16    1
    13    16    17    1
    14    17    18   ar
    15    18    19   ar
    16    19    20   ar
    17    20    21   ar
    18    21    23    1
    19    23    24    1
    20    24    25   ar
    21    24    26   ar
    22    21    22   ar
    23     4     5    2
    24     5     6    1
    25     6     7    2
    26     6     1    1
    27    12     8   ar
    28    22    17   ar
@<TRIPOS>MOLECULE
*****
 26 28 0 0 0
SMALL
GASTEIGER

@<TRIPOS>ATOM
      1 C          64.9161   91.4900   12.9542 C.3     1  UNL1        0.2094
      2 C          65.6514   91.0662   14.1910 C.2     1  UNL1        0.0896
      3 N          65.2528   89.8098   14.9070 N.2     1  UNL1       -0.2256
      4 C          64.1189   88.9773   14.3863 C.2     1  UNL1        0.1817
      5 N          63.3837   89.4011   13.1494 N.am    1  UNL1       -0.1534
      6 C          63.7823   90.6575   12.4334 C.2     1  UNL1        0.2669
      7 O          63.0470   91.0813   11.1965 O.2     1  UNL1       -0.2714
      8 C          66.7853   91.8987   14.7119 C.ar    1  UNL1        0.0446
      9 C          66.7283   92.8300   15.8864 C.ar    1  UNL1        0.0082
     10 C          68.0830   93.4530   16.0501 C.ar    1  UNL1        0.0075
     11 C          68.9771   92.9068   14.9767 C.ar    1  UNL1        0.0355
     12 S          68.1751   91.9462   14.1496 S.2     1  UNL1       -0.0852
     13 N          65.7133   94.0027   11.5221 N.1     1  UNL1       -0.1950
     14 C          65.3147   92.7463   12.2382 C.1     1  UNL1        0.0877
     15 S          63.7204   87.7209   15.1023 S.3     1  UNL1       -0.0734
     16 C          64.4822   86.4502   14.8680 C.3     1  UNL1        0.0911
     17 C          64.0331   85.4916   13.8053 C.ar    1  UNL1       -0.0112
     18 C          64.5307   84.0765   13.8128 C.ar    1  UNL1       -0.0034
     19 C          64.0816   83.1179   12.7501 C.ar    1  UNL1       -0.0006
     20 C          63.1348   83.5744   11.6798 C.ar    1  UNL1       -0.0039
     21 C          62.6372   84.9894   11.6723 C.ar    1  UNL1       -0.0169
     22 C          63.0863   85.9480   12.7350 C.ar    1  UNL1       -0.0073
     23 C          61.6905   85.4458   10.6021 C.3     1  UNL1        0.0679
     24 C          62.1950   86.2741    9.4579 C.2     1  UNL1        0.0547
     25 O          61.8358   87.7276    9.3685 O.co2   1  UNL1       -0.5488
     26 O          63.0589   85.6488    8.4029 O.co2   1  UNL1       -0.5488
@<TRIPOS>UNITY_ATOM_ATTR
25 1
charge -1
@<TRIPOS>BOND
     1    13    14    3
     2    14     1    1
     3     1     2    1
     4     2     8    1
     5     8     9   ar
     6     9    10   ar
     7    10    11   ar
     8    11    12   ar
     9     2     3    2
    10     3     4    1
    11     4    15    1
    12    15    16    1
    13    16    17    1
    14    17    18   ar
    15    18    19   ar
    16    19    20   ar
    17    20    21   ar
    18    21    23    1
    19    23    24    1
    20    24    25   ar
    21    24    26   ar
    22    21    22   ar
    23     4     5    2
    24     5     6    1
    25     6     7    2
    26     6     1    1
    27    12     8   ar
    28    22    17   ar
