@<TRIPOS>MOLECULE
*****
 50 53 0 0 0
SMALL
GASTEIGER

@<TRIPOS>ATOM
      1 C          63.1331   88.3534   12.5855 C.2     1  UNL1        0.2438
      2 O          63.2908   87.8680   13.9959 O.2     1  UNL1       -0.2731
      3 N          62.7391   87.3940   11.5018 N.am    1  UNL1       -0.2741
      4 C          62.5028   85.9493   11.8286 C.3     1  UNL1        0.0938
      5 C          62.7263   84.8975   10.7827 C.3     1  UNL1        0.0233
      6 C          64.0033   84.1106   10.7712 C.3     1  UNL1        0.0234
      7 C          64.4294   83.3546   11.9946 C.3     1  UNL1        0.0971
      8 N          63.4063   82.6484   12.8341 N.am    1  UNL1       -0.2419
      9 C          63.5203   82.6680   14.3296 C.2     1  UNL1        0.4055
     10 O          62.4972   81.9619   15.1691 O.2     1  UNL1       -0.2262
     11 C          62.2692   81.9227   12.1780 C.3     1  UNL1        0.1234
     12 C          62.5052   80.5929   11.5253 C.ar    1  UNL1       -0.0022
     13 C          62.4070   79.3329   12.3333 C.ar    1  UNL1       -0.0026
     14 C          62.6429   78.0032   11.6805 C.ar    1  UNL1       -0.0003
     15 C          62.9770   77.9334   10.2199 C.ar    1  UNL1       -0.0000
     16 C          63.0752   79.1934    9.4119 C.ar    1  UNL1       -0.0003
     17 C          62.8392   80.5231   10.0647 C.ar    1  UNL1       -0.0026
     18 O          64.6574   83.3938   14.9857 O.3     1  UNL1       -0.4289
     19 C          64.5765   84.8760   15.2008 C.3     1  UNL1        0.2447
     20 C          63.4891   85.4511   16.0590 C.ar    1  UNL1        0.0714
     21 C          62.0213   85.1712   15.9277 C.ar    1  UNL1        0.1053
     22 N          61.3035   85.9542   16.9868 N.ar    1  UNL1       -0.2350
     23 C          62.3277   86.7181   17.7727 C.ar    1  UNL1        0.1343
     24 S          63.6784   86.4072   17.1993 S.2     1  UNL1       -0.0652
     25 C          62.5814   87.8794   10.0913 C.3     1  UNL1        0.1202
     26 C          61.4173   87.4183    9.2652 C.ar    1  UNL1       -0.0023
     27 C          61.5886   86.2899    8.2918 C.ar    1  UNL1       -0.0026
     28 C          60.4246   85.8289    7.4657 C.ar    1  UNL1       -0.0003
     29 C          59.0893   86.4962    7.6130 C.ar    1  UNL1       -0.0000
     30 C          58.9180   87.6245    8.5864 C.ar    1  UNL1       -0.0003
     31 C          60.0821   88.0856    9.4125 C.ar    1  UNL1       -0.0026
     32 C          63.3693   89.7981   12.2587 C.3     1  UNL1        0.1499
     33 N          65.6410   91.8061   14.8196 N.am    1  UNL1       -0.2567
     34 C          65.5569   92.3760   16.2045 C.3     1  UNL1        0.1168
     35 C          64.4631   91.0871   14.2316 C.2     1  UNL1        0.3046
     36 O          63.2012   90.9379   15.0287 O.2     1  UNL1       -0.2526
     37 N          64.5472   90.5172   12.8467 N.am    1  UNL1       -0.2824
     38 H          65.3755   90.6151   12.3235 H       1  UNL1        0.1514
     39 C          66.9029   91.9553   14.0225 C.3     1  UNL1        0.1413
     40 C          67.3385   93.4929   10.4854 C.ar    1  UNL1        0.0875
     41 N          67.6143   92.4104   11.4865 N.ar    1  UNL1       -0.2453
     42 C          66.9003   92.7619   12.7579 C.ar    1  UNL1        0.0858
     43 C          66.1831   94.0617   12.5426 C.ar    1  UNL1        0.0530
     44 S          66.4540   94.5135   11.1382 S.2     1  UNL1       -0.0705
     45 C          67.5054   94.7044    8.1932 C.3     1  UNL1        0.0069
     46 C          67.8563   93.5456    9.0786 C.3     1  UNL1        0.0465
     47 C          68.7250   92.4395    8.5572 C.3     1  UNL1        0.0069
     48 C          62.4278   90.5239   11.3440 C.3     1  UNL1        0.0270
     49 C          60.9553   90.5242   11.6301 C.3     1  UNL1        0.0022
     50 C          62.9587   91.2493   10.1432 C.3     1  UNL1        0.0022
@<TRIPOS>BOND
     1    45    46    1
     2    46    47    1
     3    46    40    1
     4    40    41   ar
     5    41    42   ar
     6    42    39    1
     7    39    33    1
     8    33    34    1
     9    33    35   am
    10    35    36    2
    11    35    37   am
    12    32    37    1
    13    32     1    1
    14     1     2    2
    15     1     3   am
    16     3     4    1
    17     4     5    1
    18     5     6    1
    19     6     7    1
    20     7     8    1
    21     8    11    1
    22    11    12    1
    23    12    13   ar
    24    13    14   ar
    25    14    15   ar
    26    15    16   ar
    27    16    17   ar
    28     8     9   am
    29     9    10    2
    30     9    18    1
    31    18    19    1
    32    19    20    1
    33    20    21   ar
    34    21    22   ar
    35    22    23   ar
    36    23    24   ar
    37     3    25    1
    38    25    26    1
    39    26    27   ar
    40    27    28   ar
    41    28    29   ar
    42    29    30   ar
    43    30    31   ar
    44    32    48    1
    45    48    49    1
    46    48    50    1
    47    42    43   ar
    48    43    44   ar
    49    44    40   ar
    50    17    12   ar
    51    24    20   ar
    52    31    26   ar
    53    37    38    1
@<TRIPOS>MOLECULE
*****
 50 53 0 0 0
SMALL
GASTEIGER

@<TRIPOS>ATOM
      1 C          63.1049   88.3450   12.4812 C.2     1  UNL1        0.2438
      2 O          63.2609   87.8374   13.8840 O.2     1  UNL1       -0.2731
      3 N          62.7151   87.4023   11.3815 N.am    1  UNL1       -0.2741
      4 C          62.4812   85.9520   11.6846 C.3     1  UNL1        0.0938
      5 C          62.4981   84.9418   10.5758 C.3     1  UNL1        0.0233
      6 C          63.4443   83.7794   10.6346 C.3     1  UNL1        0.0234
      7 C          64.5723   83.7800   11.6233 C.3     1  UNL1        0.0971
      8 N          64.4883   82.9317   12.8576 N.am    1  UNL1       -0.2419
      9 C          64.7015   83.5491   14.2079 C.2     1  UNL1        0.4055
     10 O          64.6174   82.7008   15.4422 O.2     1  UNL1       -0.2262
     11 C          64.1910   81.4660   12.7415 C.3     1  UNL1        0.1234
     12 C          62.8683   80.9301   13.2035 C.ar    1  UNL1       -0.0022
     13 C          61.8141   81.8693   13.7098 C.ar    1  UNL1       -0.0026
     14 C          60.4915   81.3334   14.1717 C.ar    1  UNL1       -0.0003
     15 C          60.2231   79.8582   14.1272 C.ar    1  UNL1       -0.0000
     16 C          61.2773   78.9191   13.6209 C.ar    1  UNL1       -0.0003
     17 C          62.5999   79.4550   13.1590 C.ar    1  UNL1       -0.0026
     18 O          64.9988   85.0148   14.3240 O.3     1  UNL1       -0.4289
     19 C          64.9178   85.6930   15.6594 C.3     1  UNL1        0.2447
     20 C          63.5812   85.9540   16.2882 C.ar    1  UNL1        0.0714
     21 C          62.3300   85.1583   16.0620 C.ar    1  UNL1        0.1053
     22 N          61.2367   85.7691   16.8876 N.ar    1  UNL1       -0.2350
     23 C          61.8122   86.9424   17.6241 C.ar    1  UNL1        0.1343
     24 S          63.2612   87.0566   17.2536 S.2     1  UNL1       -0.0652
     25 C          62.5592   87.9099    9.9786 C.3     1  UNL1        0.1202
     26 C          61.3680   87.5041    9.1622 C.ar    1  UNL1       -0.0023
     27 C          61.4078   86.2410    8.3541 C.ar    1  UNL1       -0.0026
     28 C          60.2167   85.8351    7.5377 C.ar    1  UNL1       -0.0003
     29 C          58.9857   86.6924    7.5295 C.ar    1  UNL1       -0.0000
     30 C          58.9460   87.9554    8.3376 C.ar    1  UNL1       -0.0003
     31 C          60.1371   88.3613    9.1540 C.ar    1  UNL1       -0.0026
     32 C          63.3388   89.7953   12.1780 C.3     1  UNL1        0.1499
     33 N          65.6443   91.7624   14.7405 N.am    1  UNL1       -0.2567
     34 C          65.5761   92.3163   16.1328 C.3     1  UNL1        0.1168
     35 C          64.4575   91.0558   14.1554 C.2     1  UNL1        0.3046
     36 O          63.2025   90.9031   14.9627 O.2     1  UNL1       -0.2526
     37 N          64.5257   90.5019   12.7631 N.am    1  UNL1       -0.2824
     38 H          65.3494   90.6021   12.2333 H       1  UNL1        0.1514
     39 C          66.8993   91.9150   13.9332 C.3     1  UNL1        0.1413
     40 C          67.3311   93.5201   10.4257 C.ar    1  UNL1        0.0875
     41 N          67.6205   92.4264   11.4107 N.ar    1  UNL1       -0.2453
     42 C          66.8903   92.7426   12.6822 C.ar    1  UNL1        0.0858
     43 C          66.1497   94.0318   12.4832 C.ar    1  UNL1        0.0530
     44 S          66.4221   94.5123   11.0886 S.2     1  UNL1       -0.0705
     45 C          68.7196   92.5068    8.4776 C.3     1  UNL1        0.0069
     46 C          67.8582   93.6065    9.0240 C.3     1  UNL1        0.0465
     47 C          67.5240   94.7926    8.1688 C.3     1  UNL1        0.0069
     48 C          62.3860   90.5390   11.2899 C.3     1  UNL1        0.0270
     49 C          60.9192   90.5478   11.6041 C.3     1  UNL1        0.0022
     50 C          62.8998   91.2740   10.0875 C.3     1  UNL1        0.0022
@<TRIPOS>BOND
     1    45    46    1
     2    46    47    1
     3    46    40    1
     4    40    41   ar
     5    41    42   ar
     6    42    39    1
     7    39    33    1
     8    33    34    1
     9    33    35   am
    10    35    36    2
    11    35    37   am
    12    32    37    1
    13    32     1    1
    14     1     2    2
    15     1     3   am
    16     3     4    1
    17     4     5    1
    18     5     6    1
    19     6     7    1
    20     7     8    1
    21     8    11    1
    22    11    12    1
    23    12    13   ar
    24    13    14   ar
    25    14    15   ar
    26    15    16   ar
    27    16    17   ar
    28     8     9   am
    29     9    10    2
    30     9    18    1
    31    18    19    1
    32    19    20    1
    33    20    21   ar
    34    21    22   ar
    35    22    23   ar
    36    23    24   ar
    37     3    25    1
    38    25    26    1
    39    26    27   ar
    40    27    28   ar
    41    28    29   ar
    42    29    30   ar
    43    30    31   ar
    44    32    48    1
    45    48    49    1
    46    48    50    1
    47    42    43   ar
    48    43    44   ar
    49    44    40   ar
    50    17    12   ar
    51    24    20   ar
    52    31    26   ar
    53    37    38    1
@<TRIPOS>MOLECULE
*****
 50 53 0 0 0
SMALL
GASTEIGER

@<TRIPOS>ATOM
      1 C          63.2574   90.3948   13.2233 C.2     1  UNL1        0.2438
      2 O          64.1615   91.5883   13.3129 O.2     1  UNL1       -0.2731
      3 N          62.3138   90.2539   12.0658 N.am    1  UNL1       -0.2741
      4 C          62.2743   91.3065   10.9979 C.3     1  UNL1        0.0938
      5 C          63.4052   91.4252   10.0196 C.3     1  UNL1        0.0233
      6 C          64.8240   91.3860   10.5050 C.3     1  UNL1        0.0234
      7 C          65.6906   92.6047   10.3880 C.3     1  UNL1        0.0971
      8 N          67.1800   92.4811   10.5165 N.am    1  UNL1       -0.2419
      9 C          68.0765   93.1283    9.5028 C.2     1  UNL1        0.4055
     10 O          69.5658   93.0047    9.6312 O.2     1  UNL1       -0.2262
     11 C          67.7729   91.7102   11.6585 C.3     1  UNL1        0.1234
     12 C          67.7336   92.2773   13.0467 C.ar    1  UNL1       -0.0022
     13 C          68.7789   91.8831   14.0476 C.ar    1  UNL1       -0.0026
     14 C          68.7397   92.4501   15.4358 C.ar    1  UNL1       -0.0003
     15 C          67.6551   93.4113   15.8229 C.ar    1  UNL1       -0.0000
     16 C          66.6098   93.8054   14.8220 C.ar    1  UNL1       -0.0003
     17 C          66.6491   93.2384   13.4339 C.ar    1  UNL1       -0.0026
     18 O          67.4835   93.8991    8.3607 O.3     1  UNL1       -0.4289
     19 C          67.3116   95.3854    8.4681 C.3     1  UNL1        0.2447
     20 C          66.4334   95.9635    9.5379 C.ar    1  UNL1        0.0714
     21 C          66.8545   96.3007   10.9375 C.ar    1  UNL1        0.1053
     22 N          65.6613   96.8515   11.6606 N.ar    1  UNL1       -0.2350
     23 C          64.5026   96.8546   10.7079 C.ar    1  UNL1        0.1343
     24 S          64.9798   96.3057    9.3960 S.2     1  UNL1       -0.0652
     25 C          61.4097   89.0604   11.9762 C.3     1  UNL1        0.1202
     26 C          61.2507   88.3360   10.6724 C.ar    1  UNL1       -0.0023
     27 C          60.2137   88.7856    9.6862 C.ar    1  UNL1       -0.0026
     28 C          60.0548   88.0612    8.3823 C.ar    1  UNL1       -0.0003
     29 C          60.9329   86.8873    8.0647 C.ar    1  UNL1       -0.0000
     30 C          61.9699   86.4378    9.0508 C.ar    1  UNL1       -0.0003
     31 C          62.1288   87.1622   10.3547 C.ar    1  UNL1       -0.0026
     32 C          63.2969   89.3422   14.2912 C.3     1  UNL1        0.1499
     33 N          64.2085   85.4917   13.9859 N.am    1  UNL1       -0.2567
     34 C          65.2827   84.5423   14.4273 C.3     1  UNL1        0.1168
     35 C          64.2898   86.9423   14.3592 C.2     1  UNL1        0.3046
     36 O          65.4453   87.4434   15.1738 O.2     1  UNL1       -0.2526
     37 N          63.2156   87.8916   13.9179 N.am    1  UNL1       -0.2824
     38 H          62.4572   87.5627   13.3832 H       1  UNL1        0.1514
     39 C          63.0529   84.9905   13.1713 C.3     1  UNL1        0.1413
     40 C          63.1335   81.5519   11.3729 C.ar    1  UNL1        0.0875
     41 N          62.7383   82.4134   12.5355 N.ar    1  UNL1       -0.2453
     42 C          63.2295   83.8054   12.2690 C.ar    1  UNL1        0.0858
     43 C          63.9282   83.8042   10.9416 C.ar    1  UNL1        0.0530
     44 S          63.8689   82.4114   10.3878 S.2     1  UNL1       -0.0705
     45 C          62.9122   79.4455    9.8681 C.3     1  UNL1        0.0069
     46 C          62.8440   80.0878   11.2219 C.3     1  UNL1        0.0465
     47 C          62.4864   79.2660   12.4247 C.3     1  UNL1        0.0069
     48 C          63.4176   89.7401   15.7324 C.3     1  UNL1        0.0270
     49 C          62.9377   88.8127   16.8093 C.3     1  UNL1        0.0022
     50 C          64.0183   91.0654   16.0967 C.3     1  UNL1        0.0022
@<TRIPOS>BOND
     1    45    46    1
     2    46    47    1
     3    46    40    1
     4    40    41   ar
     5    41    42   ar
     6    42    39    1
     7    39    33    1
     8    33    34    1
     9    33    35   am
    10    35    36    2
    11    35    37   am
    12    32    37    1
    13    32     1    1
    14     1     2    2
    15     1     3   am
    16     3     4    1
    17     4     5    1
    18     5     6    1
    19     6     7    1
    20     7     8    1
    21     8    11    1
    22    11    12    1
    23    12    13   ar
    24    13    14   ar
    25    14    15   ar
    26    15    16   ar
    27    16    17   ar
    28     8     9   am
    29     9    10    2
    30     9    18    1
    31    18    19    1
    32    19    20    1
    33    20    21   ar
    34    21    22   ar
    35    22    23   ar
    36    23    24   ar
    37     3    25    1
    38    25    26    1
    39    26    27   ar
    40    27    28   ar
    41    28    29   ar
    42    29    30   ar
    43    30    31   ar
    44    32    48    1
    45    48    49    1
    46    48    50    1
    47    42    43   ar
    48    43    44   ar
    49    44    40   ar
    50    17    12   ar
    51    24    20   ar
    52    31    26   ar
    53    37    38    1
@<TRIPOS>MOLECULE
*****
 50 53 0 0 0
SMALL
GASTEIGER

@<TRIPOS>ATOM
      1 C          62.7965   88.6271   13.3534 C.2     1  UNL1        0.2438
      2 O          61.8176   89.7624   13.4050 O.2     1  UNL1       -0.2731
      3 N          62.6154   87.5257   12.3514 N.am    1  UNL1       -0.2741
      4 C          61.4555   87.5596   11.4010 C.3     1  UNL1        0.0938
      5 C          60.2515   88.3968   11.7166 C.3     1  UNL1        0.0233
      6 C          59.7966   89.4504   10.7507 C.3     1  UNL1        0.0234
      7 C          60.3590   89.4865    9.3606 C.3     1  UNL1        0.0971
      8 N          59.8016   88.5814    8.3022 N.am    1  UNL1       -0.2419
      9 C          59.3390   89.1523    6.9946 C.2     1  UNL1        0.4055
     10 O          58.7817   88.2472    5.9362 O.2     1  UNL1       -0.2262
     11 C          59.7069   87.1053    8.5515 C.3     1  UNL1        0.1234
     12 C          60.7489   86.1819    7.9930 C.ar    1  UNL1       -0.0022
     13 C          60.4300   85.3213    6.8066 C.ar    1  UNL1       -0.0026
     14 C          61.4719   84.3980    6.2482 C.ar    1  UNL1       -0.0003
     15 C          62.8327   84.3354    6.8761 C.ar    1  UNL1       -0.0000
     16 C          63.1516   85.1960    8.0625 C.ar    1  UNL1       -0.0003
     17 C          62.1097   86.1193    8.6209 C.ar    1  UNL1       -0.0026
     18 O          59.4337   90.6285    6.7453 O.3     1  UNL1       -0.4289
     19 C          58.9330   91.2047    5.4541 C.3     1  UNL1        0.2447
     20 C          59.9051   91.7365    4.4431 C.ar    1  UNL1        0.0714
     21 C          61.3542   91.3652    4.3332 C.ar    1  UNL1        0.1053
     22 N          61.9436   92.1321    3.1867 N.ar    1  UNL1       -0.2350
     23 C          60.8586   92.9774    2.5879 C.ar    1  UNL1        0.1343
     24 S          59.5988   92.7328    3.3644 S.2     1  UNL1       -0.0652
     25 C          63.5943   86.3903   12.2997 C.3     1  UNL1        0.1202
     26 C          63.1310   84.9880   12.5622 C.ar    1  UNL1       -0.0023
     27 C          62.6254   84.6073   13.9222 C.ar    1  UNL1       -0.0026
     28 C          62.1621   83.2050   14.1846 C.ar    1  UNL1       -0.0003
     29 C          62.2044   82.1834   13.0870 C.ar    1  UNL1       -0.0000
     30 C          62.7100   82.5641   11.7271 C.ar    1  UNL1       -0.0003
     31 C          63.1733   83.9664   11.4647 C.ar    1  UNL1       -0.0026
     32 C          63.9565   88.5932   14.3038 C.3     1  UNL1        0.1499
     33 N          66.0540   91.8552   15.1466 N.am    1  UNL1       -0.2567
     34 C          66.0384   92.9919   16.1253 C.3     1  UNL1        0.1168
     35 C          64.9974   90.7926   15.2145 C.2     1  UNL1        0.3046
     36 O          63.9254   90.8666   16.2610 O.2     1  UNL1       -0.2526
     37 N          65.0130   89.6559   14.2359 N.am    1  UNL1       -0.2824
     38 H          65.7166   89.6073   13.5490 H       1  UNL1        0.1514
     39 C          67.1260   91.7812   14.1001 C.3     1  UNL1        0.1413
     40 C          67.2147   93.0700   10.4400 C.ar    1  UNL1        0.0875
     41 N          67.8722   92.3973   11.6085 N.ar    1  UNL1       -0.2453
     42 C          66.8869   92.3642   12.7389 C.ar    1  UNL1        0.0858
     43 C          65.6204   93.0164   12.2692 C.ar    1  UNL1        0.0530
     44 S          65.8230   93.4526   10.8484 S.2     1  UNL1       -0.0705
     45 C          68.7817   92.3074    8.5131 C.3     1  UNL1        0.0069
     46 C          67.8393   93.3168    9.0988 C.3     1  UNL1        0.0465
     47 C          67.5216   94.5730    8.3432 C.3     1  UNL1        0.0069
     48 C          64.0600   87.4967   15.3220 C.3     1  UNL1        0.0270
     49 C          65.0874   86.4160   15.1586 C.3     1  UNL1        0.0022
     50 C          63.1362   87.4808   16.5037 C.3     1  UNL1        0.0022
@<TRIPOS>BOND
     1    45    46    1
     2    46    47    1
     3    46    40    1
     4    40    41   ar
     5    41    42   ar
     6    42    39    1
     7    39    33    1
     8    33    34    1
     9    33    35   am
    10    35    36    2
    11    35    37   am
    12    32    37    1
    13    32     1    1
    14     1     2    2
    15     1     3   am
    16     3     4    1
    17     4     5    1
    18     5     6    1
    19     6     7    1
    20     7     8    1
    21     8    11    1
    22    11    12    1
    23    12    13   ar
    24    13    14   ar
    25    14    15   ar
    26    15    16   ar
    27    16    17   ar
    28     8     9   am
    29     9    10    2
    30     9    18    1
    31    18    19    1
    32    19    20    1
    33    20    21   ar
    34    21    22   ar
    35    22    23   ar
    36    23    24   ar
    37     3    25    1
    38    25    26    1
    39    26    27   ar
    40    27    28   ar
    41    28    29   ar
    42    29    30   ar
    43    30    31   ar
    44    32    48    1
    45    48    49    1
    46    48    50    1
    47    42    43   ar
    48    43    44   ar
    49    44    40   ar
    50    17    12   ar
    51    24    20   ar
    52    31    26   ar
    53    37    38    1
@<TRIPOS>MOLECULE
*****
 50 53 0 0 0
SMALL
GASTEIGER

@<TRIPOS>ATOM
      1 C          62.5114   89.1019   12.2086 C.2     1  UNL1        0.2438
      2 O          62.0735   89.1116   13.6432 O.2     1  UNL1       -0.2731
      3 N          62.3433   87.8618   11.3815 N.am    1  UNL1       -0.2741
      4 C          61.7374   86.6315   11.9890 C.3     1  UNL1        0.0938
      5 C          62.5534   85.3796   12.1195 C.3     1  UNL1        0.0233
      6 C          62.0018   84.1988   12.8620 C.3     1  UNL1        0.0234
      7 C          62.1135   84.1336   14.3564 C.3     1  UNL1        0.0971
      8 N          63.3531   83.5778   14.9923 N.am    1  UNL1       -0.2419
      9 C          63.5805   82.0954   15.0225 C.2     1  UNL1        0.4055
     10 O          64.8201   81.5396   15.6584 O.2     1  UNL1       -0.2262
     11 C          64.3653   84.5043   15.5981 C.3     1  UNL1        0.1234
     12 C          63.9688   85.8980   15.9861 C.ar    1  UNL1       -0.0022
     13 C          64.4224   87.0644   15.1594 C.ar    1  UNL1       -0.0026
     14 C          64.0259   88.4580   15.5474 C.ar    1  UNL1       -0.0003
     15 C          63.1758   88.6852   16.7622 C.ar    1  UNL1       -0.0000
     16 C          62.7222   87.5187   17.5890 C.ar    1  UNL1       -0.0003
     17 C          63.1187   86.1251   17.2009 C.ar    1  UNL1       -0.0026
     18 O          62.5683   81.1689   14.4166 O.3     1  UNL1       -0.4289
     19 C          62.8094   80.5792   13.0586 C.3     1  UNL1        0.2447
     20 C          63.4769   81.3975   11.9934 C.ar    1  UNL1        0.0714
     21 C          64.6972   82.2512   12.1725 C.ar    1  UNL1        0.1053
     22 N          65.0159   82.8871   10.8518 N.ar    1  UNL1       -0.2350
     23 C          63.9926   82.4263    9.8565 C.ar    1  UNL1        0.1343
     24 S          63.0415   81.5057   10.5621 S.2     1  UNL1       -0.0652
     25 C          62.7812   87.8521    9.9469 C.3     1  UNL1        0.1202
     26 C          62.1575   86.8909    8.9789 C.ar    1  UNL1       -0.0023
     27 C          62.9782   85.7829    8.3881 C.ar    1  UNL1       -0.0026
     28 C          62.3545   84.8217    7.4201 C.ar    1  UNL1       -0.0003
     29 C          60.9101   84.9684    7.0428 C.ar    1  UNL1       -0.0000
     30 C          60.0895   86.0764    7.6335 C.ar    1  UNL1       -0.0003
     31 C          60.7132   87.0376    8.6016 C.ar    1  UNL1       -0.0026
     32 C          63.1173   90.3322   11.6010 C.3     1  UNL1        0.1499
     33 N          65.8780   91.9009   13.9818 N.am    1  UNL1       -0.2567
     34 C          65.9958   92.4531   15.3715 C.3     1  UNL1        0.1168
     35 C          64.5566   91.3926   13.4863 C.2     1  UNL1        0.3046
     36 O          63.3530   91.4365   14.3804 O.2     1  UNL1       -0.2526
     37 N          64.4387   90.8405   12.0966 N.am    1  UNL1       -0.2824
     38 H          65.2287   90.8117   11.5097 H       1  UNL1        0.1514
     39 C          67.0816   91.8571   13.0876 C.3     1  UNL1        0.1413
     40 C          66.8432   94.5465   10.2992 C.ar    1  UNL1        0.0875
     41 N          66.5883   94.0912   11.7055 N.ar    1  UNL1       -0.2453
     42 C          67.1243   92.6973   11.8458 C.ar    1  UNL1        0.0858
     43 C          67.7105   92.2911   10.5262 C.ar    1  UNL1        0.0530
     44 S          67.5368   93.4339    9.5703 S.2     1  UNL1       -0.0705
     45 C          65.1726   96.5270   10.1078 C.3     1  UNL1        0.0069
     46 C          66.4701   95.8802    9.7229 C.3     1  UNL1        0.0465
     47 C          67.3944   96.5670    8.7618 C.3     1  UNL1        0.0069
     48 C          62.4019   91.0542   10.4980 C.3     1  UNL1        0.0270
     49 C          63.1694   91.9343    9.5564 C.3     1  UNL1        0.0022
     50 C          60.9190   90.8962   10.3364 C.3     1  UNL1        0.0022
@<TRIPOS>BOND
     1    45    46    1
     2    46    47    1
     3    46    40    1
     4    40    41   ar
     5    41    42   ar
     6    42    39    1
     7    39    33    1
     8    33    34    1
     9    33    35   am
    10    35    36    2
    11    35    37   am
    12    32    37    1
    13    32     1    1
    14     1     2    2
    15     1     3   am
    16     3     4    1
    17     4     5    1
    18     5     6    1
    19     6     7    1
    20     7     8    1
    21     8    11    1
    22    11    12    1
    23    12    13   ar
    24    13    14   ar
    25    14    15   ar
    26    15    16   ar
    27    16    17   ar
    28     8     9   am
    29     9    10    2
    30     9    18    1
    31    18    19    1
    32    19    20    1
    33    20    21   ar
    34    21    22   ar
    35    22    23   ar
    36    23    24   ar
    37     3    25    1
    38    25    26    1
    39    26    27   ar
    40    27    28   ar
    41    28    29   ar
    42    29    30   ar
    43    30    31   ar
    44    32    48    1
    45    48    49    1
    46    48    50    1
    47    42    43   ar
    48    43    44   ar
    49    44    40   ar
    50    17    12   ar
    51    24    20   ar
    52    31    26   ar
    53    37    38    1
@<TRIPOS>MOLECULE
*****
 50 53 0 0 0
SMALL
GASTEIGER

@<TRIPOS>ATOM
      1 C          61.4112   88.6140    9.5879 C.2     1  UNL1        0.2438
      2 O          60.6222   89.5279    8.6978 O.2     1  UNL1       -0.2731
      3 N          62.3021   89.1868   10.6501 N.am    1  UNL1       -0.2741
      4 C          62.4041   90.6733   10.8221 C.3     1  UNL1        0.0938
      5 C          63.4690   91.4411   10.0964 C.3     1  UNL1        0.0233
      6 C          64.5018   92.2055   10.8702 C.3     1  UNL1        0.0234
      7 C          65.5862   92.9459   10.1452 C.3     1  UNL1        0.0971
      8 N          67.0254   92.6142   10.4073 N.am    1  UNL1       -0.2419
      9 C          68.1008   93.2086    9.5469 C.2     1  UNL1        0.4055
     10 O          69.5400   92.8770    9.8090 O.2     1  UNL1       -0.2262
     11 C          67.3892   91.6881   11.5297 C.3     1  UNL1        0.1234
     12 C          67.4787   92.2096   12.9334 C.ar    1  UNL1       -0.0022
     13 C          68.7575   92.0709   13.7049 C.ar    1  UNL1       -0.0026
     14 C          68.8469   92.5925   15.1085 C.ar    1  UNL1       -0.0003
     15 C          67.6574   93.2526   15.7405 C.ar    1  UNL1       -0.0000
     16 C          66.3786   93.3913   14.9689 C.ar    1  UNL1       -0.0003
     17 C          66.2892   92.8698   13.5654 C.ar    1  UNL1       -0.0026
     18 O          67.7369   94.1348    8.4244 O.3     1  UNL1       -0.4289
     19 C          67.5861   95.6045    8.6837 C.3     1  UNL1        0.2447
     20 C          66.5082   96.0971    9.6032 C.ar    1  UNL1        0.0714
     21 C          66.6621   96.3864   11.0669 C.ar    1  UNL1        0.1053
     22 N          65.3362   96.8550   11.5887 N.ar    1  UNL1       -0.2350
     23 C          64.3627   96.8554   10.4474 C.ar    1  UNL1        0.1343
     24 S          65.0871   96.3869    9.2203 S.2     1  UNL1       -0.0652
     25 C          63.0911   88.2729   11.5402 C.3     1  UNL1        0.1202
     26 C          63.3743   88.6684   12.9591 C.ar    1  UNL1       -0.0023
     27 C          63.8276   87.6366   13.9491 C.ar    1  UNL1       -0.0026
     28 C          64.1108   88.0321   15.3681 C.ar    1  UNL1       -0.0003
     29 C          63.9406   89.4595   15.7970 C.ar    1  UNL1       -0.0000
     30 C          63.4874   90.4912   14.8071 C.ar    1  UNL1       -0.0003
     31 C          63.2042   90.0957   13.3881 C.ar    1  UNL1       -0.0026
     32 C          61.3092   87.1275    9.4159 C.3     1  UNL1        0.1499
     33 N          63.7261   84.1576   10.4596 N.am    1  UNL1       -0.2567
     34 C          64.4549   83.0117    9.8228 C.3     1  UNL1        0.1168
     35 C          62.8821   85.0696    9.6193 C.2     1  UNL1        0.3046
     36 O          62.7668   84.8355    8.1422 O.2     1  UNL1       -0.2526
     37 N          62.1533   86.2155   10.2562 N.am    1  UNL1       -0.2824
     38 H          62.2289   86.3691   11.2257 H       1  UNL1        0.1514
     39 C          63.8414   84.3917   11.9368 C.3     1  UNL1        0.1413
     40 C          61.8306   81.6655   13.8315 C.ar    1  UNL1        0.0875
     41 N          62.4922   82.1776   12.5864 N.ar    1  UNL1       -0.2453
     42 C          63.0858   83.5200   12.8954 C.ar    1  UNL1        0.0858
     43 C          62.7911   83.8377   14.3315 C.ar    1  UNL1        0.0530
     44 S          62.0154   82.6916   14.9100 S.2     1  UNL1       -0.0705
     45 C          61.8638   79.0677   13.8318 C.3     1  UNL1        0.0069
     46 C          61.1107   80.3572   13.9731 C.3     1  UNL1        0.0465
     47 C          59.6378   80.3384   14.2561 C.3     1  UNL1        0.0069
     48 C          60.3632   86.5527    8.4036 C.3     1  UNL1        0.0270
     49 C          60.8907   85.7248    7.2694 C.3     1  UNL1        0.0022
     50 C          58.8898   86.8059    8.5254 C.3     1  UNL1        0.0022
@<TRIPOS>BOND
     1    45    46    1
     2    46    47    1
     3    46    40    1
     4    40    41   ar
     5    41    42   ar
     6    42    39    1
     7    39    33    1
     8    33    34    1
     9    33    35   am
    10    35    36    2
    11    35    37   am
    12    32    37    1
    13    32     1    1
    14     1     2    2
    15     1     3   am
    16     3     4    1
    17     4     5    1
    18     5     6    1
    19     6     7    1
    20     7     8    1
    21     8    11    1
    22    11    12    1
    23    12    13   ar
    24    13    14   ar
    25    14    15   ar
    26    15    16   ar
    27    16    17   ar
    28     8     9   am
    29     9    10    2
    30     9    18    1
    31    18    19    1
    32    19    20    1
    33    20    21   ar
    34    21    22   ar
    35    22    23   ar
    36    23    24   ar
    37     3    25    1
    38    25    26    1
    39    26    27   ar
    40    27    28   ar
    41    28    29   ar
    42    29    30   ar
    43    30    31   ar
    44    32    48    1
    45    48    49    1
    46    48    50    1
    47    42    43   ar
    48    43    44   ar
    49    44    40   ar
    50    17    12   ar
    51    24    20   ar
    52    31    26   ar
    53    37    38    1
@<TRIPOS>MOLECULE
*****
 50 53 0 0 0
SMALL
GASTEIGER

@<TRIPOS>ATOM
      1 C          60.8382   88.3082   12.0546 C.2     1  UNL1        0.2438
      2 O          60.1097   88.0400   13.3380 O.2     1  UNL1       -0.2731
      3 N          61.4149   87.1691   11.2673 N.am    1  UNL1       -0.2741
      4 C          61.2630   85.7617   11.7635 C.3     1  UNL1        0.0938
      5 C          62.3852   84.7811   11.5928 C.3     1  UNL1        0.0233
      6 C          63.7440   85.0923   12.1467 C.3     1  UNL1        0.0234
      7 C          64.3093   84.2593   13.2587 C.3     1  UNL1        0.0971
      8 N          63.8542   84.4842   14.6703 N.am    1  UNL1       -0.2419
      9 C          62.6621   83.7444   15.2008 C.2     1  UNL1        0.4055
     10 O          62.2070   83.9693   16.6123 O.2     1  UNL1       -0.2262
     11 C          64.5913   85.4489   15.5512 C.3     1  UNL1        0.1234
     12 C          64.1413   86.8771   15.6408 C.ar    1  UNL1       -0.0022
     13 C          64.5006   87.8462   14.5537 C.ar    1  UNL1       -0.0026
     14 C          64.0507   89.2743   14.6434 C.ar    1  UNL1       -0.0003
     15 C          63.2415   89.7333   15.8200 C.ar    1  UNL1       -0.0000
     16 C          62.8822   88.7642   16.9071 C.ar    1  UNL1       -0.0003
     17 C          63.3322   87.3361   16.8175 C.ar    1  UNL1       -0.0026
     18 O          61.9250   82.7797   14.3198 O.3     1  UNL1       -0.4289
     19 C          62.3998   81.3621   14.1980 C.3     1  UNL1        0.2447
     20 C          62.5979   80.7513   12.8424 C.ar    1  UNL1        0.0714
     21 C          62.4486   79.2987   12.4994 C.ar    1  UNL1        0.1053
     22 N          62.7385   79.1356   11.0368 N.ar    1  UNL1       -0.2350
     23 C          63.0671   80.4874   10.4758 C.ar    1  UNL1        0.1343
     24 S          62.9802   81.4860   11.5917 S.2     1  UNL1       -0.0652
     25 C          62.1434   87.4373    9.9839 C.3     1  UNL1        0.1202
     26 C          61.9559   86.5229    8.8098 C.ar    1  UNL1       -0.0023
     27 C          63.1136   85.7236    8.2892 C.ar    1  UNL1       -0.0026
     28 C          62.9260   84.8091    7.1150 C.ar    1  UNL1       -0.0003
     29 C          61.5807   84.6940    6.4615 C.ar    1  UNL1       -0.0000
     30 C          60.4231   85.4932    6.9821 C.ar    1  UNL1       -0.0003
     31 C          60.6107   86.4077    8.1562 C.ar    1  UNL1       -0.0026
     32 C          60.9901   89.7156   11.5584 C.3     1  UNL1        0.1499
     33 N          64.2919   91.9063   11.3359 N.am    1  UNL1       -0.2567
     34 C          65.2132   92.4659   10.2928 C.3     1  UNL1        0.1168
     35 C          63.1016   91.0908   10.9256 C.2     1  UNL1        0.3046
     36 O          62.8328   90.8348    9.4723 O.2     1  UNL1       -0.2526
     37 N          62.1803   90.5312   11.9687 N.am    1  UNL1       -0.2824
     38 H          62.3568   90.6992   12.9226 H       1  UNL1        0.1514
     39 C          64.5607   92.1623   12.7892 C.3     1  UNL1        0.1413
     40 C          67.9038   92.6054   14.7107 C.ar    1  UNL1        0.0875
     41 N          66.4114   92.7334   14.6314 N.ar    1  UNL1       -0.2453
     42 C          65.9727   92.2202   13.2919 C.ar    1  UNL1        0.0858
     43 C          67.1941   91.7749   12.5435 C.ar    1  UNL1        0.0530
     44 S          68.3876   92.0130   13.4203 S.2     1  UNL1       -0.0705
     45 C          69.1334   94.4393   16.0802 C.3     1  UNL1        0.0069
     46 C          68.7619   93.0004   15.8759 C.3     1  UNL1        0.0465
     47 C          69.2486   91.9566   16.8369 C.3     1  UNL1        0.0069
     48 C          59.9518   90.3075   10.6520 C.3     1  UNL1        0.0270
     49 C          58.9315   91.2599   11.2015 C.3     1  UNL1        0.0022
     50 C          59.9337   89.9469    9.1961 C.3     1  UNL1        0.0022
@<TRIPOS>BOND
     1    45    46    1
     2    46    47    1
     3    46    40    1
     4    40    41   ar
     5    41    42   ar
     6    42    39    1
     7    39    33    1
     8    33    34    1
     9    33    35   am
    10    35    36    2
    11    35    37   am
    12    32    37    1
    13    32     1    1
    14     1     2    2
    15     1     3   am
    16     3     4    1
    17     4     5    1
    18     5     6    1
    19     6     7    1
    20     7     8    1
    21     8    11    1
    22    11    12    1
    23    12    13   ar
    24    13    14   ar
    25    14    15   ar
    26    15    16   ar
    27    16    17   ar
    28     8     9   am
    29     9    10    2
    30     9    18    1
    31    18    19    1
    32    19    20    1
    33    20    21   ar
    34    21    22   ar
    35    22    23   ar
    36    23    24   ar
    37     3    25    1
    38    25    26    1
    39    26    27   ar
    40    27    28   ar
    41    28    29   ar
    42    29    30   ar
    43    30    31   ar
    44    32    48    1
    45    48    49    1
    46    48    50    1
    47    42    43   ar
    48    43    44   ar
    49    44    40   ar
    50    17    12   ar
    51    24    20   ar
    52    31    26   ar
    53    37    38    1
@<TRIPOS>MOLECULE
*****
 50 53 0 0 0
SMALL
GASTEIGER

@<TRIPOS>ATOM
      1 C          61.2562   88.0381   11.5942 C.2     1  UNL1        0.2438
      2 O          60.6209   87.8324   12.9374 O.2     1  UNL1       -0.2731
      3 N          61.7193   86.8565   10.7947 N.am    1  UNL1       -0.2741
      4 C          61.5472   85.4691   11.3383 C.3     1  UNL1        0.0938
      5 C          62.6535   84.4659   11.1979 C.3     1  UNL1        0.0233
      6 C          63.9334   84.6496   11.9582 C.3     1  UNL1        0.0234
      7 C          64.3985   83.5886   12.9111 C.3     1  UNL1        0.0971
      8 N          63.8998   83.5802   14.3258 N.am    1  UNL1       -0.2419
      9 C          62.6824   82.7817   14.6870 C.2     1  UNL1        0.4055
     10 O          62.1836   82.7732   16.1016 O.2     1  UNL1       -0.2262
     11 C          64.6183   84.3701   15.3791 C.3     1  UNL1        0.1234
     12 C          64.1523   85.7525   15.7283 C.ar    1  UNL1       -0.0022
     13 C          64.5319   86.9140   14.8584 C.ar    1  UNL1       -0.0026
     14 C          64.0659   88.2963   15.2076 C.ar    1  UNL1       -0.0003
     15 C          63.2204   88.5172   16.4268 C.ar    1  UNL1       -0.0000
     16 C          62.8408   87.3557   17.2967 C.ar    1  UNL1       -0.0003
     17 C          63.3068   85.9733   16.9474 C.ar    1  UNL1       -0.0026
     18 O          61.9638   81.9917   13.6336 O.3     1  UNL1       -0.4289
     19 C          62.2737   80.5361   13.4458 C.3     1  UNL1        0.2447
     20 C          62.5304   79.9953   12.0704 C.ar    1  UNL1        0.0714
     21 C          62.4840   78.5510   11.6682 C.ar    1  UNL1        0.1053
     22 N          62.8034   78.4669   10.2050 N.ar    1  UNL1       -0.2350
     23 C          63.0472   79.8592    9.7029 C.ar    1  UNL1        0.1343
     24 S          62.8784   80.8038   10.8558 S.2     1  UNL1       -0.0652
     25 C          62.3546   87.0622    9.4516 C.3     1  UNL1        0.1202
     26 C          62.0169   86.1449    8.3138 C.ar    1  UNL1       -0.0023
     27 C          60.6098   86.0751    7.7989 C.ar    1  UNL1       -0.0026
     28 C          60.2721   85.1578    6.6611 C.ar    1  UNL1       -0.0003
     29 C          61.3417   84.3103    6.0382 C.ar    1  UNL1       -0.0000
     30 C          62.7487   84.3801    6.5532 C.ar    1  UNL1       -0.0003
     31 C          63.0864   85.2974    7.6910 C.ar    1  UNL1       -0.0026
     32 C          61.4283   89.4255   11.0506 C.3     1  UNL1        0.1499
     33 N          64.4690   91.2859   12.7952 N.am    1  UNL1       -0.2567
     34 C          64.9066   91.7018   14.1683 C.3     1  UNL1        0.1168
     35 C          63.1675   90.5637   12.6095 C.2     1  UNL1        0.3046
     36 O          62.3036   90.2575   13.7969 O.2     1  UNL1       -0.2526
     37 N          62.7298   90.1477   11.2364 N.am    1  UNL1       -0.2824
     38 H          63.2969   90.3487   10.4570 H       1  UNL1        0.1514
     39 C          65.3329   91.5921   11.6078 C.3     1  UNL1        0.1413
     40 C          66.0797   95.0674   10.0490 C.ar    1  UNL1        0.0875
     41 N          65.6664   93.6319    9.9128 N.ar    1  UNL1       -0.2453
     42 C          65.6800   93.0139   11.2796 C.ar    1  UNL1        0.0858
     43 C          66.1018   94.0676   12.2604 C.ar    1  UNL1        0.0530
     44 S          66.3488   95.3366   11.5000 S.2     1  UNL1       -0.0705
     45 C          65.0063   96.8554    8.4995 C.3     1  UNL1        0.0069
     46 C          66.2024   96.0594    8.9306 C.3     1  UNL1        0.0465
     47 C          67.5211   96.2556    8.2434 C.3     1  UNL1        0.0069
     48 C          60.2989   90.0907   10.3212 C.3     1  UNL1        0.0270
     49 C          60.0999   89.8377    8.8561 C.3     1  UNL1        0.0022
     50 C          59.3685   91.0090   11.0569 C.3     1  UNL1        0.0022
@<TRIPOS>BOND
     1    45    46    1
     2    46    47    1
     3    46    40    1
     4    40    41   ar
     5    41    42   ar
     6    42    39    1
     7    39    33    1
     8    33    34    1
     9    33    35   am
    10    35    36    2
    11    35    37   am
    12    32    37    1
    13    32     1    1
    14     1     2    2
    15     1     3   am
    16     3     4    1
    17     4     5    1
    18     5     6    1
    19     6     7    1
    20     7     8    1
    21     8    11    1
    22    11    12    1
    23    12    13   ar
    24    13    14   ar
    25    14    15   ar
    26    15    16   ar
    27    16    17   ar
    28     8     9   am
    29     9    10    2
    30     9    18    1
    31    18    19    1
    32    19    20    1
    33    20    21   ar
    34    21    22   ar
    35    22    23   ar
    36    23    24   ar
    37     3    25    1
    38    25    26    1
    39    26    27   ar
    40    27    28   ar
    41    28    29   ar
    42    29    30   ar
    43    30    31   ar
    44    32    48    1
    45    48    49    1
    46    48    50    1
    47    42    43   ar
    48    43    44   ar
    49    44    40   ar
    50    17    12   ar
    51    24    20   ar
    52    31    26   ar
    53    37    38    1
@<TRIPOS>MOLECULE
*****
 50 53 0 0 0
SMALL
GASTEIGER

@<TRIPOS>ATOM
      1 C          63.5784   86.9727   13.0936 C.2     1  UNL1        0.2438
      2 O          63.1101   88.0773   12.1934 O.2     1  UNL1       -0.2731
      3 N          63.3466   85.5417   12.7079 N.am    1  UNL1       -0.2741
      4 C          62.6466   85.2154   11.4221 C.3     1  UNL1        0.0938
      5 C          61.2371   85.6769   11.1974 C.3     1  UNL1        0.0233
      6 C          60.9524   87.1305   10.9614 C.3     1  UNL1        0.0234
      7 C          59.6508   87.5493   10.3447 C.3     1  UNL1        0.0971
      8 N          59.5539   87.7504    8.8613 N.am    1  UNL1       -0.2419
      9 C          59.6291   89.1334    8.2855 C.2     1  UNL1        0.4055
     10 O          59.5322   89.3345    6.8022 O.2     1  UNL1       -0.2262
     11 C          59.3819   86.5685    7.9539 C.3     1  UNL1        0.1234
     12 C          60.5846   85.8176    7.4641 C.ar    1  UNL1       -0.0022
     13 C          61.9099   85.9996    8.1425 C.ar    1  UNL1       -0.0026
     14 C          63.1125   85.2488    7.6527 C.ar    1  UNL1       -0.0003
     15 C          62.9898   84.3159    6.4845 C.ar    1  UNL1       -0.0000
     16 C          61.6644   84.1339    5.8061 C.ar    1  UNL1       -0.0003
     17 C          60.4618   84.8848    6.2959 C.ar    1  UNL1       -0.0026
     18 O          59.8011   90.3154    9.1930 O.3     1  UNL1       -0.4289
     19 C          60.3590   90.1268   10.5725 C.3     1  UNL1        0.2447
     20 C          61.7278   90.6424   10.9050 C.ar    1  UNL1        0.0714
     21 C          62.2787   90.8559   12.2837 C.ar    1  UNL1        0.1053
     22 N          63.6774   91.3804   12.1479 N.ar    1  UNL1       -0.2350
     23 C          63.9910   91.4912   10.6852 C.ar    1  UNL1        0.1343
     24 S          62.7861   91.0350    9.9170 S.2     1  UNL1       -0.0652
     25 C          63.8149   84.4371   13.6081 C.3     1  UNL1        0.1202
     26 C          63.2102   83.0691   13.4938 C.ar    1  UNL1       -0.0023
     27 C          62.1275   82.6461   14.4419 C.ar    1  UNL1       -0.0026
     28 C          61.5228   81.2781   14.3276 C.ar    1  UNL1       -0.0003
     29 C          62.0008   80.3332   13.2651 C.ar    1  UNL1       -0.0000
     30 C          63.0835   80.7563   12.3170 C.ar    1  UNL1       -0.0003
     31 C          63.6882   82.1243   12.4314 C.ar    1  UNL1       -0.0026
     32 C          64.2784   87.2989   14.3795 C.3     1  UNL1        0.1499
     33 N          64.8835   91.0710   15.4547 N.am    1  UNL1       -0.2567
     34 C          64.1669   92.1730   16.1772 C.3     1  UNL1        0.1168
     35 C          64.2226   89.7359   15.2783 C.2     1  UNL1        0.3046
     36 O          62.8451   89.5030   15.8244 O.2     1  UNL1       -0.2526
     37 N          64.9392   88.6340   14.5559 N.am    1  UNL1       -0.2824
     38 H          65.8433   88.7869   14.1974 H       1  UNL1        0.1514
     39 C          66.2610   91.3039   14.9086 C.3     1  UNL1        0.1413
     40 C          67.0575   93.0377   11.5286 C.ar    1  UNL1        0.0875
     41 N          67.0557   91.8241   12.4101 N.ar    1  UNL1       -0.2453
     42 C          66.4571   92.2107   13.7300 C.ar    1  UNL1        0.0858
     43 C          66.0890   93.6634   13.6643 C.ar    1  UNL1        0.0530
     44 S          66.4601   94.1745   12.3038 S.2     1  UNL1       -0.0705
     45 C          67.2794   94.3075    9.2728 C.3     1  UNL1        0.0069
     46 C          67.5674   93.1032   10.1194 C.3     1  UNL1        0.0465
     47 C          68.3651   91.9643    9.5568 C.3     1  UNL1        0.0069
     48 C          64.3176   86.2903   15.4890 C.3     1  UNL1        0.0270
     49 C          63.2407   86.2817   16.5332 C.3     1  UNL1        0.0022
     50 C          65.4336   85.2902   15.5543 C.3     1  UNL1        0.0022
@<TRIPOS>BOND
     1    45    46    1
     2    46    47    1
     3    46    40    1
     4    40    41   ar
     5    41    42   ar
     6    42    39    1
     7    39    33    1
     8    33    34    1
     9    33    35   am
    10    35    36    2
    11    35    37   am
    12    32    37    1
    13    32     1    1
    14     1     2    2
    15     1     3   am
    16     3     4    1
    17     4     5    1
    18     5     6    1
    19     6     7    1
    20     7     8    1
    21     8    11    1
    22    11    12    1
    23    12    13   ar
    24    13    14   ar
    25    14    15   ar
    26    15    16   ar
    27    16    17   ar
    28     8     9   am
    29     9    10    2
    30     9    18    1
    31    18    19    1
    32    19    20    1
    33    20    21   ar
    34    21    22   ar
    35    22    23   ar
    36    23    24   ar
    37     3    25    1
    38    25    26    1
    39    26    27   ar
    40    27    28   ar
    41    28    29   ar
    42    29    30   ar
    43    30    31   ar
    44    32    48    1
    45    48    49    1
    46    48    50    1
    47    42    43   ar
    48    43    44   ar
    49    44    40   ar
    50    17    12   ar
    51    24    20   ar
    52    31    26   ar
    53    37    38    1
