@<TRIPOS>MOLECULE
*****
 27 31 0 0 0
SMALL
GASTEIGER

@<TRIPOS>ATOM
      1 C          65.9075   93.2585   12.3365 C.2     1  UNL1        0.0307
      2 C          66.4249   93.4521   13.7310 C.2     1  UNL1        0.2320
      3 N          65.9421   92.5650   14.8400 N.2     1  UNL1       -0.0311
      4 C          64.9418   91.4843   14.5545 C.2     1  UNL1        0.3720
      5 N          64.2874   90.4635   15.4376 N.2     1  UNL1       -0.0308
      6 C          63.3655   89.6391   14.5889 C.2     1  UNL1        0.2355
      7 C          63.4502   90.1503   13.1812 C.2     1  UNL1        0.0469
      8 C          64.4244   91.2906   13.1599 C.2     1  UNL1        0.0740
      9 C          64.9072   92.1778   12.0510 C.3     1  UNL1        0.0645
     10 N          67.8387   96.8070    7.9004 N.pl3   1  UNL1       -0.3426
     11 C          67.3559   95.9198    9.0094 C.ar    1  UNL1        0.1254
     12 C          67.5533   94.4354    8.9223 C.ar    1  UNL1        0.0339
     13 C          67.0705   93.5483   10.0314 C.ar    1  UNL1        0.0042
     14 C          66.3903   94.1456   11.2274 C.ar    1  UNL1        0.0193
     15 C          66.1929   95.6300   11.3145 C.ar    1  UNL1        0.1001
     16 N          66.6757   96.5171   10.2055 N.ar    1  UNL1       -0.2296
     17 H          68.2851   96.4150    7.1154 H       1  UNL1        0.1437
     18 H          67.7091   97.7812    7.9575 H       1  UNL1        0.1437
     19 C          62.6935   89.6151   12.0018 C.2     1  UNL1       -0.0140
     20 C          61.8651   90.5396   11.1598 C.2     1  UNL1       -0.0023
     21 C          61.1084   90.0044    9.9804 C.2     1  UNL1        0.0185
     22 C          61.1801   88.5446    9.6430 C.2     1  UNL1        0.0777
     23 N          60.5479   87.7349    8.5500 N.2     1  UNL1       -0.2442
     24 C          60.9856   86.3099    8.7164 C.2     1  UNL1        0.0985
     25 C          61.8882   86.2389    9.9124 C.2     1  UNL1        0.0182
     26 C          62.0084   87.6201   10.4850 C.2     1  UNL1        0.0014
     27 C          62.7651   88.1553   11.6644 C.3     1  UNL1        0.0543
@<TRIPOS>BOND
     1    10    11    1
     2    11    12   ar
     3    12    13   ar
     4    13    14   ar
     5    14     1    1
     6     1     2    2
     7     2     3    1
     8     3     4    2
     9     4     5    1
    10     5     6    2
    11     6     7    1
    12     7    19    1
    13    19    20    2
    14    20    21    1
    15    21    22    2
    16    22    23    1
    17    23    24    2
    18    24    25    1
    19    25    26    2
    20    26    27    1
    21     7     8    2
    22     8     9    1
    23    14    15   ar
    24    15    16   ar
    25    16    11   ar
    26     9     1    1
    27     8     4    1
    28    27    19    1
    29    26    22    1
    30    10    17    1
    31    10    18    1
@<TRIPOS>MOLECULE
*****
 27 31 0 0 0
SMALL
GASTEIGER

@<TRIPOS>ATOM
      1 C          62.7274   89.9750   11.6706 C.2     1  UNL1        0.0307
      2 C          61.8318   90.8370   10.8311 C.2     1  UNL1        0.2320
      3 N          60.9698   90.2155    9.7725 N.2     1  UNL1       -0.0311
      4 C          61.0034   88.7320    9.5534 C.2     1  UNL1        0.3720
      5 N          60.2716   87.8426    8.5923 N.2     1  UNL1       -0.0308
      6 C          60.7150   86.4308    8.8379 C.2     1  UNL1        0.2355
      7 C          61.7207   86.4477    9.9507 C.2     1  UNL1        0.0469
      8 C          61.8989   87.8699   10.3929 C.2     1  UNL1        0.0740
      9 C          62.7609   88.4914   11.4515 C.3     1  UNL1        0.0645
     10 N          66.1755   92.4608   15.9051 N.pl3   1  UNL1       -0.3426
     11 C          65.3135   91.8393   14.8465 C.ar    1  UNL1        0.1254
     12 C          64.3937   90.7075   15.1973 C.ar    1  UNL1        0.0339
     13 C          63.5316   90.0861   14.1386 C.ar    1  UNL1        0.0042
     14 C          63.5894   90.5964   12.7293 C.ar    1  UNL1        0.0193
     15 C          64.5092   91.7282   12.3786 C.ar    1  UNL1        0.1001
     16 N          65.3713   92.3497   13.4371 N.ar    1  UNL1       -0.2296
     17 H          66.1376   92.1258   16.8301 H       1  UNL1        0.1437
     18 H          66.7792   93.2036   15.6749 H       1  UNL1        0.1437
     19 C          62.4246   85.2523   10.5212 C.2     1  UNL1       -0.0140
     20 C          63.3346   84.4334    9.6545 C.2     1  UNL1       -0.0023
     21 C          64.0385   83.2379   10.2250 C.2     1  UNL1        0.0185
     22 C          63.8324   82.8614   11.6623 C.2     1  UNL1        0.0777
     23 N          64.3870   81.7453   12.4969 N.2     1  UNL1       -0.2442
     24 C          63.8198   81.8744   13.8795 C.2     1  UNL1        0.0985
     25 C          62.9147   83.0704   13.8994 C.2     1  UNL1        0.0182
     26 C          62.9225   83.6804   12.5290 C.2     1  UNL1        0.0014
     27 C          62.2186   84.8758   11.9585 C.3     1  UNL1        0.0543
@<TRIPOS>BOND
     1    10    11    1
     2    11    12   ar
     3    12    13   ar
     4    13    14   ar
     5    14     1    1
     6     1     2    2
     7     2     3    1
     8     3     4    2
     9     4     5    1
    10     5     6    2
    11     6     7    1
    12     7    19    1
    13    19    20    2
    14    20    21    1
    15    21    22    2
    16    22    23    1
    17    23    24    2
    18    24    25    1
    19    25    26    2
    20    26    27    1
    21     7     8    2
    22     8     9    1
    23    14    15   ar
    24    15    16   ar
    25    16    11   ar
    26     9     1    1
    27     8     4    1
    28    27    19    1
    29    26    22    1
    30    10    17    1
    31    10    18    1
@<TRIPOS>MOLECULE
*****
 27 31 0 0 0
SMALL
GASTEIGER

@<TRIPOS>ATOM
      1 C          62.2299   85.8540   11.3938 C.2     1  UNL1        0.0307
      2 C          61.2799   85.8072   10.2340 C.2     1  UNL1        0.2320
      3 N          60.8883   87.0745    9.5337 N.2     1  UNL1       -0.0311
      4 C          61.4469   88.3886    9.9931 C.2     1  UNL1        0.3720
      5 N          61.2449   89.7917    9.5024 N.2     1  UNL1       -0.0308
      6 C          62.0702   90.7056   10.3589 C.2     1  UNL1        0.2355
      7 C          62.7822   89.8674   11.3790 C.2     1  UNL1        0.0469
      8 C          62.3969   88.4354   11.1529 C.2     1  UNL1        0.0740
      9 C          62.7885   87.1681   11.8532 C.3     1  UNL1        0.0645
     10 N          63.7962   80.7846   14.1954 N.pl3   1  UNL1       -0.3426
     11 C          63.4047   82.0519   13.4950 C.ar    1  UNL1        0.1254
     12 C          63.3361   82.0905   11.9970 C.ar    1  UNL1        0.0339
     13 C          62.9445   83.3579   11.2966 C.ar    1  UNL1        0.0042
     14 C          62.6215   84.5866   12.0942 C.ar    1  UNL1        0.0193
     15 C          62.6901   84.5479   13.5921 C.ar    1  UNL1        0.1001
     16 N          63.0817   83.2806   14.2925 N.ar    1  UNL1       -0.2296
     17 H          64.0082   79.9782   13.6719 H       1  UNL1        0.1437
     18 H          63.8412   80.7593   15.1785 H       1  UNL1        0.1437
     19 C          63.7156   90.3724   12.4390 C.2     1  UNL1       -0.0140
     20 C          63.8592   89.6235   13.7307 C.2     1  UNL1       -0.0023
     21 C          64.7926   90.1285   14.7907 C.2     1  UNL1        0.0185
     22 C          65.5824   91.3825   14.5591 C.2     1  UNL1        0.0777
     23 N          66.5729   92.1170   15.4132 N.2     1  UNL1       -0.2442
     24 C          67.0415   93.3199   14.6493 C.2     1  UNL1        0.0985
     25 C          66.3406   93.3288   13.3232 C.2     1  UNL1        0.0182
     26 C          65.4388   92.1315   13.2675 C.2     1  UNL1        0.0014
     27 C          64.5054   91.6264   12.2074 C.3     1  UNL1        0.0543
@<TRIPOS>BOND
     1    10    11    1
     2    11    12   ar
     3    12    13   ar
     4    13    14   ar
     5    14     1    1
     6     1     2    2
     7     2     3    1
     8     3     4    2
     9     4     5    1
    10     5     6    2
    11     6     7    1
    12     7    19    1
    13    19    20    2
    14    20    21    1
    15    21    22    2
    16    22    23    1
    17    23    24    2
    18    24    25    1
    19    25    26    2
    20    26    27    1
    21     7     8    2
    22     8     9    1
    23    14    15   ar
    24    15    16   ar
    25    16    11   ar
    26     9     1    1
    27     8     4    1
    28    27    19    1
    29    26    22    1
    30    10    17    1
    31    10    18    1
@<TRIPOS>MOLECULE
*****
 27 31 0 0 0
SMALL
GASTEIGER

@<TRIPOS>ATOM
      1 C          62.1755   85.6239   10.5742 C.2     1  UNL1        0.0307
      2 C          62.5792   84.2308   10.1915 C.2     1  UNL1        0.2320
      3 N          63.4135   83.4079   11.1278 N.2     1  UNL1       -0.0311
      4 C          63.8441   83.9779   12.4468 C.2     1  UNL1        0.3720
      5 N          64.6634   83.4085   13.5669 N.2     1  UNL1       -0.0308
      6 C          64.7660   84.4497   14.6418 C.2     1  UNL1        0.2355
      7 C          64.0102   85.6625   14.1860 C.2     1  UNL1        0.0469
      8 C          63.4404   85.3710   12.8294 C.2     1  UNL1        0.0740
      9 C          62.6061   86.1939   11.8931 C.3     1  UNL1        0.0645
     10 N          58.8384   88.9161    6.8291 N.pl3   1  UNL1       -0.3426
     11 C          59.6727   88.0930    7.7653 C.ar    1  UNL1        0.1254
     12 C          59.7940   86.6125    7.5573 C.ar    1  UNL1        0.0339
     13 C          60.6283   85.7894    8.4936 C.ar    1  UNL1        0.0042
     14 C          61.3412   86.4469    9.6379 C.ar    1  UNL1        0.0193
     15 C          61.2199   87.9275    9.8459 C.ar    1  UNL1        0.1001
     16 N          60.3857   88.7505    8.9097 N.ar    1  UNL1       -0.2296
     17 H          58.3705   88.4845    6.0781 H       1  UNL1        0.1437
     18 H          58.7588   89.8878    6.9656 H       1  UNL1        0.1437
     19 C          63.8519   86.9423   14.9523 C.2     1  UNL1       -0.0140
     20 C          63.2128   86.9299   16.3092 C.2     1  UNL1       -0.0023
     21 C          63.0545   88.2096   17.0755 C.2     1  UNL1        0.0185
     22 C          63.5354   89.5019   16.4848 C.2     1  UNL1        0.0777
     23 N          63.5150   90.9102   17.0005 N.2     1  UNL1       -0.2442
     24 C          64.1416   91.7931   15.9623 C.2     1  UNL1        0.0985
     25 C          64.5492   90.9304   14.8049 C.2     1  UNL1        0.0182
     26 C          64.1745   89.5143   15.1279 C.2     1  UNL1        0.0014
     27 C          64.3328   88.2345   14.3616 C.3     1  UNL1        0.0543
@<TRIPOS>BOND
     1    10    11    1
     2    11    12   ar
     3    12    13   ar
     4    13    14   ar
     5    14     1    1
     6     1     2    2
     7     2     3    1
     8     3     4    2
     9     4     5    1
    10     5     6    2
    11     6     7    1
    12     7    19    1
    13    19    20    2
    14    20    21    1
    15    21    22    2
    16    22    23    1
    17    23    24    2
    18    24    25    1
    19    25    26    2
    20    26    27    1
    21     7     8    2
    22     8     9    1
    23    14    15   ar
    24    15    16   ar
    25    16    11   ar
    26     9     1    1
    27     8     4    1
    28    27    19    1
    29    26    22    1
    30    10    17    1
    31    10    18    1
@<TRIPOS>MOLECULE
*****
 27 31 0 0 0
SMALL
GASTEIGER

@<TRIPOS>ATOM
      1 C          63.6323   85.1161   13.7030 C.2     1  UNL1        0.0307
      2 C          64.5577   85.5697   14.7928 C.2     1  UNL1        0.2320
      3 N          64.8726   87.0277   14.9507 N.2     1  UNL1       -0.0311
      4 C          64.2622   88.0321   14.0188 C.2     1  UNL1        0.3720
      5 N          64.3860   89.5244   13.9305 N.2     1  UNL1       -0.0308
      6 C          63.5371   89.9931   12.7861 C.2     1  UNL1        0.2355
      7 C          62.8887   88.7904   12.1671 C.2     1  UNL1        0.0469
      8 C          63.3369   87.5785   12.9289 C.2     1  UNL1        0.0740
      9 C          63.0219   86.1205   12.7710 C.3     1  UNL1        0.0645
     10 N          62.3723   79.2839   13.0713 N.pl3   1  UNL1       -0.3426
     11 C          62.6873   80.7419   13.2292 C.ar    1  UNL1        0.1254
     12 C          63.0995   81.5536   12.0370 C.ar    1  UNL1        0.0339
     13 C          63.4145   83.0117   12.1950 C.ar    1  UNL1        0.0042
     14 C          63.3173   83.6580   13.5450 C.ar    1  UNL1        0.0193
     15 C          62.9051   82.8463   14.7372 C.ar    1  UNL1        0.1001
     16 N          62.5901   81.3883   14.5793 N.ar    1  UNL1       -0.2296
     17 H          62.4361   78.8597   12.1852 H       1  UNL1        0.1437
     18 H          62.1018   78.7512   13.8538 H       1  UNL1        0.1437
     19 C          61.9559   88.7983   10.9924 C.2     1  UNL1       -0.0140
     20 C          61.4177   90.0975   10.4707 C.2     1  UNL1       -0.0023
     21 C          60.4849   90.1054    9.2961 C.2     1  UNL1        0.0185
     22 C          60.0903   88.8139    8.6430 C.2     1  UNL1        0.0777
     23 N          59.1951   88.5107    7.4783 N.2     1  UNL1       -0.2442
     24 C          59.1801   87.0239    7.2801 C.2     1  UNL1        0.0985
     25 C          60.0660   86.4083    8.3223 C.2     1  UNL1        0.0182
     26 C          60.6285   87.5147    9.1647 C.2     1  UNL1        0.0014
     27 C          61.5613   87.5068   10.3394 C.3     1  UNL1        0.0543
@<TRIPOS>BOND
     1    10    11    1
     2    11    12   ar
     3    12    13   ar
     4    13    14   ar
     5    14     1    1
     6     1     2    2
     7     2     3    1
     8     3     4    2
     9     4     5    1
    10     5     6    2
    11     6     7    1
    12     7    19    1
    13    19    20    2
    14    20    21    1
    15    21    22    2
    16    22    23    1
    17    23    24    2
    18    24    25    1
    19    25    26    2
    20    26    27    1
    21     7     8    2
    22     8     9    1
    23    14    15   ar
    24    15    16   ar
    25    16    11   ar
    26     9     1    1
    27     8     4    1
    28    27    19    1
    29    26    22    1
    30    10    17    1
    31    10    18    1
@<TRIPOS>MOLECULE
*****
 27 31 0 0 0
SMALL
GASTEIGER

@<TRIPOS>ATOM
      1 C          62.2734   87.8893   11.3953 C.2     1  UNL1        0.0307
      2 C          62.8631   89.0559   12.1309 C.2     1  UNL1        0.2320
      3 N          63.7312   88.8241   13.3319 N.2     1  UNL1       -0.0311
      4 C          64.0096   87.4256   13.7974 C.2     1  UNL1        0.3720
      5 N          64.8214   86.8909   14.9399 N.2     1  UNL1       -0.0308
      6 C          64.7334   85.3938   14.9103 C.2     1  UNL1        0.2355
      7 C          63.8672   85.0032   13.7497 C.2     1  UNL1        0.0469
      8 C          63.4199   86.2589   13.0618 C.2     1  UNL1        0.0740
      9 C          62.5518   86.4908   11.8608 C.3     1  UNL1        0.0645
     10 N          58.8008   88.8166    6.5910 N.pl3   1  UNL1       -0.3426
     11 C          59.6689   88.5847    7.7920 C.ar    1  UNL1        0.1254
     12 C          60.0252   87.1863    8.2012 C.ar    1  UNL1        0.0339
     13 C          60.8933   86.9545    9.4024 C.ar    1  UNL1        0.0042
     14 C          61.4052   88.1211   10.1942 C.ar    1  UNL1        0.0193
     15 C          61.0489   89.5195    9.7850 C.ar    1  UNL1        0.1001
     16 N          60.1808   89.7514    8.5839 N.ar    1  UNL1       -0.2296
     17 H          58.4648   88.0509    6.0712 H       1  UNL1        0.1437
     18 H          58.5670   89.7344    6.3224 H       1  UNL1        0.1437
     19 C          63.5109   83.6028   13.3474 C.2     1  UNL1       -0.0140
     20 C          62.9979   82.6355   14.3726 C.2     1  UNL1       -0.0023
     21 C          62.6415   81.2351   13.9703 C.2     1  UNL1        0.0185
     22 C          62.7983   80.8019   12.5428 C.2     1  UNL1        0.0777
     23 N          62.5301   79.4962   11.8549 N.2     1  UNL1       -0.2442
     24 C          62.8774   79.6566   10.4045 C.2     1  UNL1        0.0985
     25 C          63.3602   81.0613   10.1960 C.2     1  UNL1        0.0182
     26 C          63.3113   81.7692   11.5176 C.2     1  UNL1        0.0014
     27 C          63.6676   83.1696   11.9199 C.3     1  UNL1        0.0543
@<TRIPOS>BOND
     1    10    11    1
     2    11    12   ar
     3    12    13   ar
     4    13    14   ar
     5    14     1    1
     6     1     2    2
     7     2     3    1
     8     3     4    2
     9     4     5    1
    10     5     6    2
    11     6     7    1
    12     7    19    1
    13    19    20    2
    14    20    21    1
    15    21    22    2
    16    22    23    1
    17    23    24    2
    18    24    25    1
    19    25    26    2
    20    26    27    1
    21     7     8    2
    22     8     9    1
    23    14    15   ar
    24    15    16   ar
    25    16    11   ar
    26     9     1    1
    27     8     4    1
    28    27    19    1
    29    26    22    1
    30    10    17    1
    31    10    18    1
@<TRIPOS>MOLECULE
*****
 27 31 0 0 0
SMALL
GASTEIGER

@<TRIPOS>ATOM
      1 C          64.0737   86.6090   14.7003 C.2     1  UNL1        0.0307
      2 C          64.6720   85.5657   15.5967 C.2     1  UNL1        0.2320
      3 N          64.7573   84.1407   15.1363 N.2     1  UNL1       -0.0311
      4 C          64.2443   83.7590   13.7794 C.2     1  UNL1        0.3720
      5 N          64.1944   82.4444   13.0585 N.2     1  UNL1       -0.0308
      6 C          63.5651   82.6753   11.7166 C.2     1  UNL1        0.2355
      7 C          63.2262   84.1325   11.6082 C.2     1  UNL1        0.0469
      8 C          63.6459   84.8022   12.8830 C.2     1  UNL1        0.0740
      9 C          63.5606   86.2272   13.3435 C.3     1  UNL1        0.0645
     10 N          63.7323   92.3091   16.5422 N.pl3   1  UNL1       -0.3426
     11 C          63.8177   90.8841   16.0817 C.ar    1  UNL1        0.1254
     12 C          64.5333   90.5495   14.8066 C.ar    1  UNL1        0.0339
     13 C          64.6186   89.1245   14.3461 C.ar    1  UNL1        0.0042
     14 C          63.9883   88.0340   15.1608 C.ar    1  UNL1        0.0193
     15 C          63.2727   88.3686   16.4359 C.ar    1  UNL1        0.1001
     16 N          63.1874   89.7936   16.8964 N.ar    1  UNL1       -0.2296
     17 H          64.1460   93.0248   16.0075 H       1  UNL1        0.1437
     18 H          63.2626   92.5287   17.3791 H       1  UNL1        0.1437
     19 C          62.5808   84.8024   10.4314 C.2     1  UNL1       -0.0140
     20 C          63.1024   84.5530    9.0473 C.2     1  UNL1       -0.0023
     21 C          62.4570   85.2229    7.8706 C.2     1  UNL1        0.0185
     22 C          61.2900   86.1422    8.0779 C.2     1  UNL1        0.0777
     23 N          60.4561   86.9378    7.1179 N.2     1  UNL1       -0.2442
     24 C          59.4190   87.6788    7.9087 C.2     1  UNL1        0.0985
     25 C          59.6121   87.3413    9.3574 C.2     1  UNL1        0.0182
     26 C          60.7685   86.3916    9.4620 C.2     1  UNL1        0.0014
     27 C          61.4138   85.7217   10.6387 C.3     1  UNL1        0.0543
@<TRIPOS>BOND
     1    10    11    1
     2    11    12   ar
     3    12    13   ar
     4    13    14   ar
     5    14     1    1
     6     1     2    2
     7     2     3    1
     8     3     4    2
     9     4     5    1
    10     5     6    2
    11     6     7    1
    12     7    19    1
    13    19    20    2
    14    20    21    1
    15    21    22    2
    16    22    23    1
    17    23    24    2
    18    24    25    1
    19    25    26    2
    20    26    27    1
    21     7     8    2
    22     8     9    1
    23    14    15   ar
    24    15    16   ar
    25    16    11   ar
    26     9     1    1
    27     8     4    1
    28    27    19    1
    29    26    22    1
    30    10    17    1
    31    10    18    1
@<TRIPOS>MOLECULE
*****
 27 31 0 0 0
SMALL
GASTEIGER

@<TRIPOS>ATOM
      1 C          63.5392   85.6035   14.4042 C.2     1  UNL1        0.0307
      2 C          63.2157   85.2065   15.8140 C.2     1  UNL1        0.2320
      3 N          63.1007   86.2547   16.8808 N.2     1  UNL1       -0.0311
      4 C          63.3092   87.7000   16.5376 C.2     1  UNL1        0.3720
      5 N          63.2606   88.9465   17.3707 N.2     1  UNL1       -0.0308
      6 C          63.5540   90.1139   16.4757 C.2     1  UNL1        0.2355
      7 C          63.7839   89.5889   15.0895 C.2     1  UNL1        0.0469
      8 C          63.6326   88.0970   15.1278 C.2     1  UNL1        0.0740
      9 C          63.7476   87.0488   14.0611 C.3     1  UNL1        0.0645
     10 N          63.9992   81.4105   10.1371 N.pl3   1  UNL1       -0.3426
     11 C          63.8842   82.4588   11.2039 C.ar    1  UNL1        0.1254
     12 C          63.2478   83.7806   10.8910 C.ar    1  UNL1        0.0339
     13 C          63.1328   84.8288   11.9578 C.ar    1  UNL1        0.0042
     14 C          63.6542   84.5553   13.3374 C.ar    1  UNL1        0.0193
     15 C          64.2906   83.2335   13.6502 C.ar    1  UNL1        0.1001
     16 N          64.4056   82.1852   12.5835 N.ar    1  UNL1       -0.2296
     17 H          63.6570   81.5901    9.2316 H       1  UNL1        0.1437
     18 H          64.4169   80.5430   10.3425 H       1  UNL1        0.1437
     19 C          64.1082   90.4113   13.8777 C.2     1  UNL1       -0.0140
     20 C          63.3466   90.2010   12.6027 C.2     1  UNL1       -0.0023
     21 C          63.6709   91.0235   11.3910 C.2     1  UNL1        0.0185
     22 C          64.7569   92.0563   11.4542 C.2     1  UNL1        0.0777
     23 N          65.2958   93.0100   10.4295 N.2     1  UNL1       -0.2442
     24 C          66.3906   93.8097   11.0713 C.2     1  UNL1        0.0985
     25 C          66.5282   93.3503   12.4925 C.2     1  UNL1        0.0182
     26 C          65.5185   92.2666   12.7292 C.2     1  UNL1        0.0014
     27 C          65.1942   91.4441   13.9409 C.3     1  UNL1        0.0543
@<TRIPOS>BOND
     1    10    11    1
     2    11    12   ar
     3    12    13   ar
     4    13    14   ar
     5    14     1    1
     6     1     2    2
     7     2     3    1
     8     3     4    2
     9     4     5    1
    10     5     6    2
    11     6     7    1
    12     7    19    1
    13    19    20    2
    14    20    21    1
    15    21    22    2
    16    22    23    1
    17    23    24    2
    18    24    25    1
    19    25    26    2
    20    26    27    1
    21     7     8    2
    22     8     9    1
    23    14    15   ar
    24    15    16   ar
    25    16    11   ar
    26     9     1    1
    27     8     4    1
    28    27    19    1
    29    26    22    1
    30    10    17    1
    31    10    18    1
@<TRIPOS>MOLECULE
*****
 27 31 0 0 0
SMALL
GASTEIGER

@<TRIPOS>ATOM
      1 C          63.9011   87.4641   14.9912 C.2     1  UNL1        0.0307
      2 C          63.0313   87.5652   16.2091 C.2     1  UNL1        0.2320
      3 N          62.8669   88.8832   16.9060 N.2     1  UNL1       -0.0311
      4 C          63.5723   90.1002   16.3850 C.2     1  UNL1        0.3720
      5 N          63.6006   91.5235   16.8581 N.2     1  UNL1       -0.0308
      6 C          64.4879   92.3019   15.9325 C.2     1  UNL1        0.2355
      7 C          65.0080   91.3598   14.8875 C.2     1  UNL1        0.0469
      8 C          64.4421   89.9991   15.1672 C.2     1  UNL1        0.0740
      9 C          64.6065   88.6811   14.4703 C.3     1  UNL1        0.0645
     10 N          64.5586   82.1920   12.2033 N.pl3   1  UNL1       -0.3426
     11 C          64.3942   83.5100   12.9003 C.ar    1  UNL1        0.1254
     12 C          65.1386   83.7830   14.1736 C.ar    1  UNL1        0.0339
     13 C          64.9742   85.1011   14.8706 C.ar    1  UNL1        0.0042
     14 C          64.0655   86.1460   14.2943 C.ar    1  UNL1        0.0193
     15 C          63.3211   85.8730   13.0209 C.ar    1  UNL1        0.1001
     16 N          63.4854   84.5550   12.3240 N.ar    1  UNL1       -0.2296
     17 H          65.1551   81.5061   12.5816 H       1  UNL1        0.1437
     18 H          64.0700   82.0128   11.3676 H       1  UNL1        0.1437
     19 C          65.9317   91.7160   13.7606 C.2     1  UNL1       -0.0140
     20 C          67.3969   91.4133   13.8677 C.2     1  UNL1       -0.0023
     21 C          68.3207   91.7694   12.7409 C.2     1  UNL1        0.0185
     22 C          67.7793   92.4282   11.5068 C.2     1  UNL1        0.0777
     23 N          68.4419   92.8920   10.2436 N.2     1  UNL1       -0.2442
     24 C          67.3863   93.4813    9.3558 C.2     1  UNL1        0.0985
     25 C          66.0712   93.3817   10.0703 C.2     1  UNL1        0.0182
     26 C          66.3140   92.7309   11.3998 C.2     1  UNL1        0.0014
     27 C          65.3903   92.3748   12.5266 C.3     1  UNL1        0.0543
@<TRIPOS>BOND
     1    10    11    1
     2    11    12   ar
     3    12    13   ar
     4    13    14   ar
     5    14     1    1
     6     1     2    2
     7     2     3    1
     8     3     4    2
     9     4     5    1
    10     5     6    2
    11     6     7    1
    12     7    19    1
    13    19    20    2
    14    20    21    1
    15    21    22    2
    16    22    23    1
    17    23    24    2
    18    24    25    1
    19    25    26    2
    20    26    27    1
    21     7     8    2
    22     8     9    1
    23    14    15   ar
    24    15    16   ar
    25    16    11   ar
    26     9     1    1
    27     8     4    1
    28    27    19    1
    29    26    22    1
    30    10    17    1
    31    10    18    1
