@<TRIPOS>MOLECULE
*****
 36 39 0 0 0
SMALL
GASTEIGER

@<TRIPOS>ATOM
      1 C          64.4890   90.6590   14.5793 C.2     1  UNL1        0.0307
      2 C          63.7546   91.2215   15.7601 C.2     1  UNL1        0.2320
      3 N          63.1408   90.2985   16.7707 N.2     1  UNL1       -0.0311
      4 C          63.2614   88.8131   16.6005 C.2     1  UNL1        0.3721
      5 N          62.7637   87.6644   17.4269 N.2     1  UNL1       -0.0307
      6 C          63.1904   86.3921   16.7569 C.2     1  UNL1        0.2390
      7 C          63.9520   86.7544   15.5163 C.2     1  UNL1        0.0896
      8 C          63.9958   88.2506   15.4197 C.2     1  UNL1        0.0774
      9 C          64.6096   89.1736   14.4091 C.3     1  UNL1        0.0646
     10 C          66.3305   93.4280   11.5474 C.ar    1  UNL1        0.0590
     11 C          65.1961   92.5300   11.1515 C.ar    1  UNL1        0.0147
     12 C          64.5823   91.6070   12.1621 C.ar    1  UNL1        0.0026
     13 C          65.1028   91.5820   13.5687 C.ar    1  UNL1        0.0192
     14 C          66.2372   92.4801   13.9646 C.ar    1  UNL1        0.0982
     15 N          66.8510   93.4030   12.9540 N.ar    1  UNL1       -0.2482
     16 C          66.9443   94.3510   10.5368 C.3     1  UNL1        0.0458
     17 C          68.5654   92.7159    9.3331 C.3     1  UNL1        0.0004
     18 C          67.5265   93.7962    9.2707 C.3     1  UNL1        0.0063
     19 C          64.5624   85.7898   14.5433 C.2     1  UNL1        0.2036
     20 O          65.9920   85.3655   14.7046 O.2     1  UNL1       -0.2863
     21 C          63.7433   85.2496   13.4088 C.ar    1  UNL1        0.0951
     22 C          63.4668   83.7781   13.3175 C.ar    1  UNL1        0.1454
     23 F          64.0095   82.8469   14.3607 F       1  UNL1       -0.2040
     24 C          62.6477   83.2378   12.1830 C.ar    1  UNL1        0.0312
     25 C          62.1050   84.1690   11.1397 C.ar    1  UNL1        0.0204
     26 C          62.3814   85.6405   11.2310 C.ar    1  UNL1        0.0920
     27 C          63.2006   86.1808   12.3655 C.ar    1  UNL1        0.1598
     28 F          63.4770   87.6522   12.4567 F       1  UNL1       -0.2026
     29 N          61.8387   86.5717   10.1878 N.pl3   1  UNL1       -0.2166
     30 H          61.6802   87.5182   10.4073 H       1  UNL1        0.1734
     31 S          61.5376   86.0607    8.8100 S.O2    1  UNL1        0.0540
     32 O          62.9953   85.7804    8.5953 O.2     1  UNL1       -0.1545
     33 O          60.0797   86.3410    9.0247 O.2     1  UNL1       -0.1545
     34 C          61.2363   85.5497    7.4323 C.3     1  UNL1        0.1724
     35 C          62.2752   84.7766    6.6753 C.3     1  UNL1        0.0273
     36 C          61.9565   84.2212    5.3189 C.3     1  UNL1        0.0019
@<TRIPOS>BOND
     1    17    18    1
     2    18    16    1
     3    16    10    1
     4    10    11   ar
     5    11    12   ar
     6    12    13   ar
     7    13     1    1
     8     1     2    2
     9     2     3    1
    10     3     4    2
    11     4     5    1
    12     5     6    2
    13     6     7    1
    14     7    19    1
    15    19    20    2
    16    19    21    1
    17    21    22   ar
    18    22    23    1
    19    22    24   ar
    20    24    25   ar
    21    25    26   ar
    22    26    29    1
    23    29    31    1
    24    31    32    2
    25    31    33    2
    26    31    34    1
    27    34    35    1
    28    35    36    1
    29    26    27   ar
    30    27    28    1
    31     7     8    2
    32     8     9    1
    33    13    14   ar
    34    14    15   ar
    35    15    10   ar
    36     9     1    1
    37     8     4    1
    38    27    21   ar
    39    29    30    1
@<TRIPOS>MOLECULE
*****
 36 39 0 0 0
SMALL
GASTEIGER

@<TRIPOS>ATOM
      1 C          64.5098   90.5233   14.4834 C.2     1  UNL1        0.0307
      2 C          63.6855   91.1187   15.5861 C.2     1  UNL1        0.2320
      3 N          63.0489   90.2280   16.6113 N.2     1  UNL1       -0.0311
      4 C          63.2365   88.7418   16.5339 C.2     1  UNL1        0.3721
      5 N          62.7352   87.6206   17.3952 N.2     1  UNL1       -0.0307
      6 C          63.2497   86.3322   16.8247 C.2     1  UNL1        0.2390
      7 C          64.0690   86.6572   15.6109 C.2     1  UNL1        0.0896
      8 C          64.0608   88.1463   15.4312 C.2     1  UNL1        0.0774
      9 C          64.6974   89.0371   14.4059 C.3     1  UNL1        0.0646
     10 C          66.4198   93.1956   11.4074 C.ar    1  UNL1        0.0590
     11 C          65.1109   92.5260   11.1101 C.ar    1  UNL1        0.0147
     12 C          64.4742   91.6352   12.1355 C.ar    1  UNL1        0.0026
     13 C          65.1464   91.4141   13.4580 C.ar    1  UNL1        0.0192
     14 C          66.4553   92.0837   13.7553 C.ar    1  UNL1        0.0982
     15 N          67.0920   92.9745   12.7301 N.ar    1  UNL1       -0.2482
     16 C          67.0564   94.0863   10.3822 C.3     1  UNL1        0.0458
     17 C          68.4326   92.1025    9.4226 C.3     1  UNL1        0.0004
     18 C          67.8830   93.4911    9.2811 C.3     1  UNL1        0.0063
     19 C          64.7728   85.6668   14.7312 C.2     1  UNL1        0.2036
     20 O          66.2653   85.5324   14.7978 O.2     1  UNL1       -0.2863
     21 C          63.9842   84.8109   13.7849 C.ar    1  UNL1        0.0951
     22 C          63.8056   83.3486   14.0675 C.ar    1  UNL1        0.1454
     23 F          64.4157   82.7423   15.2964 F       1  UNL1       -0.2040
     24 C          63.0170   82.4927   13.1212 C.ar    1  UNL1        0.0312
     25 C          62.4070   83.0990   11.8923 C.ar    1  UNL1        0.0204
     26 C          62.5856   84.5613   11.6097 C.ar    1  UNL1        0.0920
     27 C          63.3742   85.4172   12.5560 C.ar    1  UNL1        0.1598
     28 F          63.5527   86.8795   12.2734 F       1  UNL1       -0.2026
     29 N          61.9755   85.1676   10.3808 N.pl3   1  UNL1       -0.2166
     30 H          61.8043   84.6083    9.5890 H       1  UNL1        0.1734
     31 S          61.6264   86.6263   10.3585 S.O2    1  UNL1        0.0540
     32 O          62.4676   86.8089    9.1301 O.2     1  UNL1       -0.1545
     33 O          60.7851   86.4437   11.5869 O.2     1  UNL1       -0.1545
     34 C          61.2772   88.0849   10.3362 C.3     1  UNL1        0.1724
     35 C          62.3659   89.1167   10.3259 C.3     1  UNL1        0.0273
     36 C          62.0371   90.5512   10.0358 C.3     1  UNL1        0.0019
@<TRIPOS>BOND
     1    17    18    1
     2    18    16    1
     3    16    10    1
     4    10    11   ar
     5    11    12   ar
     6    12    13   ar
     7    13     1    1
     8     1     2    2
     9     2     3    1
    10     3     4    2
    11     4     5    1
    12     5     6    2
    13     6     7    1
    14     7    19    1
    15    19    20    2
    16    19    21    1
    17    21    22   ar
    18    22    23    1
    19    22    24   ar
    20    24    25   ar
    21    25    26   ar
    22    26    29    1
    23    29    31    1
    24    31    32    2
    25    31    33    2
    26    31    34    1
    27    34    35    1
    28    35    36    1
    29    26    27   ar
    30    27    28    1
    31     7     8    2
    32     8     9    1
    33    13    14   ar
    34    14    15   ar
    35    15    10   ar
    36     9     1    1
    37     8     4    1
    38    27    21   ar
    39    29    30    1
@<TRIPOS>MOLECULE
*****
 36 39 0 0 0
SMALL
GASTEIGER

@<TRIPOS>ATOM
      1 C          62.4468   89.8496   11.2787 C.2     1  UNL1        0.0307
      2 C          61.1207   90.5224   11.0818 C.2     1  UNL1        0.2320
      3 N          60.0298   89.8231   10.3263 N.2     1  UNL1       -0.0311
      4 C          60.2650   88.4509    9.7677 C.2     1  UNL1        0.3721
      5 N          59.3852   87.5214    8.9853 N.2     1  UNL1       -0.0307
      6 C          60.1676   86.2742    8.6987 C.2     1  UNL1        0.2390
      7 C          61.5309   86.4329    9.3039 C.2     1  UNL1        0.0896
      8 C          61.5910   87.7782    9.9646 C.2     1  UNL1        0.0774
      9 C          62.6819   88.4775   10.7201 C.3     1  UNL1        0.0646
     10 C          65.7197   91.9477   13.5451 C.ar    1  UNL1        0.0590
     11 C          65.0096   90.7796   14.1627 C.ar    1  UNL1        0.0147
     12 C          63.9187   90.0802   13.4072 C.ar    1  UNL1        0.0026
     13 C          63.5377   90.5490   12.0342 C.ar    1  UNL1        0.0192
     14 C          64.2478   91.7171   11.4166 C.ar    1  UNL1        0.0982
     15 N          65.3387   92.4165   12.1721 N.ar    1  UNL1       -0.2482
     16 C          66.8106   92.6470   14.3006 C.3     1  UNL1        0.0458
     17 C          68.7096   92.5574   16.0714 C.3     1  UNL1        0.0004
     18 C          67.7723   91.8540   15.1350 C.3     1  UNL1        0.0063
     19 C          62.6395   85.4235    9.2568 C.2     1  UNL1        0.2036
     20 O          63.4036   85.2075    7.9843 O.2     1  UNL1       -0.2863
     21 C          62.9839   84.6300   10.4823 C.ar    1  UNL1        0.0951
     22 C          63.9700   83.5032   10.3935 C.ar    1  UNL1        0.1454
     23 F          64.6116   83.1698    9.0793 F       1  UNL1       -0.2040
     24 C          64.3145   82.7097   11.6190 C.ar    1  UNL1        0.0312
     25 C          63.6729   83.0431   12.9332 C.ar    1  UNL1        0.0204
     26 C          62.6868   84.1699   13.0220 C.ar    1  UNL1        0.0920
     27 C          62.3424   84.9634   11.7965 C.ar    1  UNL1        0.1598
     28 F          61.3563   86.0902   11.8854 F       1  UNL1       -0.2026
     29 N          62.0453   84.5033   14.3362 N.pl3   1  UNL1       -0.2166
     30 H          61.1099   84.2477   14.5063 H       1  UNL1        0.1734
     31 S          62.8290   85.2262   15.3913 S.O2    1  UNL1        0.0540
     32 O          62.1553   84.4078   16.4525 O.2     1  UNL1       -0.1545
     33 O          63.5028   86.0447   14.3301 O.2     1  UNL1       -0.1545
     34 C          63.6127   85.9492   16.4464 C.3     1  UNL1        0.1724
     35 C          62.9322   86.9503   17.3322 C.3     1  UNL1        0.0273
     36 C          63.0685   88.4171   17.0492 C.3     1  UNL1        0.0019
@<TRIPOS>BOND
     1    17    18    1
     2    18    16    1
     3    16    10    1
     4    10    11   ar
     5    11    12   ar
     6    12    13   ar
     7    13     1    1
     8     1     2    2
     9     2     3    1
    10     3     4    2
    11     4     5    1
    12     5     6    2
    13     6     7    1
    14     7    19    1
    15    19    20    2
    16    19    21    1
    17    21    22   ar
    18    22    23    1
    19    22    24   ar
    20    24    25   ar
    21    25    26   ar
    22    26    29    1
    23    29    31    1
    24    31    32    2
    25    31    33    2
    26    31    34    1
    27    34    35    1
    28    35    36    1
    29    26    27   ar
    30    27    28    1
    31     7     8    2
    32     8     9    1
    33    13    14   ar
    34    14    15   ar
    35    15    10   ar
    36     9     1    1
    37     8     4    1
    38    27    21   ar
    39    29    30    1
@<TRIPOS>MOLECULE
*****
 36 39 0 0 0
SMALL
GASTEIGER

@<TRIPOS>ATOM
      1 C          62.5514   86.1758   11.2844 C.2     1  UNL1        0.0307
      2 C          62.1127   86.3699    9.8632 C.2     1  UNL1        0.2320
      3 N          61.9281   87.7550    9.3179 N.2     1  UNL1       -0.0311
      4 C          62.1822   88.9460   10.1937 C.2     1  UNL1        0.3721
      5 N          62.0848   90.4205    9.9360 N.2     1  UNL1       -0.0307
      6 C          62.4632   91.1376   11.1979 C.2     1  UNL1        0.2390
      7 C          62.7946   90.1063   12.2355 C.2     1  UNL1        0.0896
      8 C          62.6209   88.7518   11.6149 C.2     1  UNL1        0.0774
      9 C          62.8055   87.3668   12.1603 C.3     1  UNL1        0.0646
     10 C          63.1053   82.0205   12.9207 C.ar    1  UNL1        0.0590
     11 C          63.1182   82.2508   11.4385 C.ar    1  UNL1        0.0147
     12 C          62.9336   83.6359   10.8931 C.ar    1  UNL1        0.0026
     13 C          62.7360   84.7907   11.8298 C.ar    1  UNL1        0.0192
     14 C          62.7231   84.5604   13.3120 C.ar    1  UNL1        0.0982
     15 N          62.9077   83.1754   13.8574 N.ar    1  UNL1       -0.2482
     16 C          63.2899   80.6355   13.4661 C.3     1  UNL1        0.0458
     17 C          60.7692   80.4040   14.0515 C.3     1  UNL1        0.0004
     18 C          62.0944   79.7727   13.7424 C.3     1  UNL1        0.0063
     19 C          63.2242   90.3812   13.6461 C.2     1  UNL1        0.2036
     20 O          62.4711   89.7726   14.7917 O.2     1  UNL1       -0.2863
     21 C          64.4070   91.2649   13.9112 C.ar    1  UNL1        0.0951
     22 C          64.8325   91.5453   15.3220 C.ar    1  UNL1        0.1454
     23 F          64.0752   90.9420   16.4677 F       1  UNL1       -0.2040
     24 C          66.0153   92.4289   15.5871 C.ar    1  UNL1        0.0312
     25 C          66.7725   93.0321   14.4414 C.ar    1  UNL1        0.0204
     26 C          66.3471   92.7517   13.0306 C.ar    1  UNL1        0.0920
     27 C          65.1643   91.8681   12.7655 C.ar    1  UNL1        0.1598
     28 F          64.7389   91.5878   11.3547 F       1  UNL1       -0.2026
     29 N          67.1043   93.3549   11.8849 N.pl3   1  UNL1       -0.2166
     30 H          68.0222   93.0569   11.6902 H       1  UNL1        0.1734
     31 S          66.4631   94.4123   11.0359 S.O2    1  UNL1        0.0540
     32 O          66.1961   95.2347   12.2616 O.2     1  UNL1       -0.1545
     33 O          66.7300   93.5900    9.8101 O.2     1  UNL1       -0.1545
     34 C          65.8218   95.4696   10.1868 C.3     1  UNL1        0.1724
     35 C          66.5765   96.7217    9.8511 C.3     1  UNL1        0.0273
     36 C          67.2517   96.8558    8.5184 C.3     1  UNL1        0.0019
@<TRIPOS>BOND
     1    17    18    1
     2    18    16    1
     3    16    10    1
     4    10    11   ar
     5    11    12   ar
     6    12    13   ar
     7    13     1    1
     8     1     2    2
     9     2     3    1
    10     3     4    2
    11     4     5    1
    12     5     6    2
    13     6     7    1
    14     7    19    1
    15    19    20    2
    16    19    21    1
    17    21    22   ar
    18    22    23    1
    19    22    24   ar
    20    24    25   ar
    21    25    26   ar
    22    26    29    1
    23    29    31    1
    24    31    32    2
    25    31    33    2
    26    31    34    1
    27    34    35    1
    28    35    36    1
    29    26    27   ar
    30    27    28    1
    31     7     8    2
    32     8     9    1
    33    13    14   ar
    34    14    15   ar
    35    15    10   ar
    36     9     1    1
    37     8     4    1
    38    27    21   ar
    39    29    30    1
@<TRIPOS>MOLECULE
*****
 36 39 0 0 0
SMALL
GASTEIGER

@<TRIPOS>ATOM
      1 C          62.0834   87.6096   11.0617 C.2     1  UNL1        0.0307
      2 C          62.2793   86.1530   11.3614 C.2     1  UNL1        0.2320
      3 N          63.0923   85.7347   12.5504 N.2     1  UNL1       -0.0311
      4 C          63.7094   86.7730   13.4399 C.2     1  UNL1        0.3721
      5 N          64.5553   86.6632   14.6738 N.2     1  UNL1       -0.0307
      6 C          64.8822   88.0520   15.1368 C.2     1  UNL1        0.2390
      7 C          64.2383   89.0201   14.1889 C.2     1  UNL1        0.0896
      8 C          63.5136   88.2296   13.1402 C.2     1  UNL1        0.0774
      9 C          62.7006   88.6479   11.9511 C.3     1  UNL1        0.0646
     10 C          59.6443   88.8648    7.4943 C.ar    1  UNL1        0.0590
     11 C          59.8912   87.4092    7.7595 C.ar    1  UNL1        0.0147
     12 C          60.7043   86.9908    8.9486 C.ar    1  UNL1        0.0026
     13 C          61.2704   88.0280    9.8726 C.ar    1  UNL1        0.0192
     14 C          61.0235   89.4836    9.6074 C.ar    1  UNL1        0.0982
     15 N          60.2105   89.9020    8.4184 N.ar    1  UNL1       -0.2482
     16 C          58.8314   89.2832    6.3053 C.3     1  UNL1        0.0458
     17 C          58.1131   91.4576    5.0779 C.3     1  UNL1        0.0004
     18 C          59.1917   90.5288    5.5511 C.3     1  UNL1        0.0063
     19 C          64.3072   90.5160   14.2747 C.2     1  UNL1        0.2036
     20 O          63.3068   91.2667   15.1028 O.2     1  UNL1       -0.2863
     21 C          65.3764   91.2615   13.5324 C.ar    1  UNL1        0.0951
     22 C          66.7689   91.3249   14.0864 C.ar    1  UNL1        0.1454
     23 F          67.0922   90.6429   15.3827 F       1  UNL1       -0.2040
     24 C          67.8382   92.0703   13.3440 C.ar    1  UNL1        0.0312
     25 C          67.5150   92.7523   12.0477 C.ar    1  UNL1        0.0204
     26 C          66.1225   92.6888   11.4937 C.ar    1  UNL1        0.0920
     27 C          65.0532   91.9434   12.2361 C.ar    1  UNL1        0.1598
     28 F          63.6608   91.8800   11.6820 F       1  UNL1       -0.2026
     29 N          65.7992   93.3708   10.1974 N.pl3   1  UNL1       -0.2166
     30 H          65.1085   92.9973    9.6036 H       1  UNL1        0.1734
     31 S          66.5285   94.6218    9.8059 S.O2    1  UNL1        0.0540
     32 O          67.4126   93.8217    8.8960 O.2     1  UNL1       -0.1545
     33 O          65.6443   95.4220   10.7159 O.2     1  UNL1       -0.1545
     34 C          67.2577   95.8728    9.4145 C.3     1  UNL1        0.1724
     35 C          67.0786   96.4465    8.0402 C.3     1  UNL1        0.0273
     36 C          65.6994   96.6923    7.5040 C.3     1  UNL1        0.0019
@<TRIPOS>BOND
     1    17    18    1
     2    18    16    1
     3    16    10    1
     4    10    11   ar
     5    11    12   ar
     6    12    13   ar
     7    13     1    1
     8     1     2    2
     9     2     3    1
    10     3     4    2
    11     4     5    1
    12     5     6    2
    13     6     7    1
    14     7    19    1
    15    19    20    2
    16    19    21    1
    17    21    22   ar
    18    22    23    1
    19    22    24   ar
    20    24    25   ar
    21    25    26   ar
    22    26    29    1
    23    29    31    1
    24    31    32    2
    25    31    33    2
    26    31    34    1
    27    34    35    1
    28    35    36    1
    29    26    27   ar
    30    27    28    1
    31     7     8    2
    32     8     9    1
    33    13    14   ar
    34    14    15   ar
    35    15    10   ar
    36     9     1    1
    37     8     4    1
    38    27    21   ar
    39    29    30    1
@<TRIPOS>MOLECULE
*****
 36 39 0 0 0
SMALL
GASTEIGER

@<TRIPOS>ATOM
      1 C          63.6437   86.7407   15.3886 C.2     1  UNL1        0.0307
      2 C          63.0203   86.8186   16.7507 C.2     1  UNL1        0.2320
      3 N          62.9018   88.1421   17.4466 N.2     1  UNL1       -0.0311
      4 C          63.4066   89.3876   16.7804 C.2     1  UNL1        0.3721
      5 N          63.4261   90.8224   17.2177 N.2     1  UNL1       -0.0307
      6 C          64.0615   91.6311   16.1258 C.2     1  UNL1        0.2390
      7 C          64.4347   90.6962   15.0137 C.2     1  UNL1        0.0896
      8 C          64.0300   89.3097   15.4183 C.2     1  UNL1        0.0774
      9 C          64.1485   87.9862   14.7224 C.3     1  UNL1        0.0646
     10 C          63.9994   82.7701   13.3008 C.ar    1  UNL1        0.0590
     11 C          63.6679   84.0038   12.5146 C.ar    1  UNL1        0.0147
     12 C          63.5493   85.3274   13.2106 C.ar    1  UNL1        0.0026
     13 C          63.7623   85.4171   14.6926 C.ar    1  UNL1        0.0192
     14 C          64.0938   84.1834   15.4788 C.ar    1  UNL1        0.0982
     15 N          64.2123   82.8600   14.7829 N.ar    1  UNL1       -0.2482
     16 C          64.1180   81.4467   12.6049 C.3     1  UNL1        0.0458
     17 C          61.9900   80.2537   13.4987 C.3     1  UNL1        0.0004
     18 C          62.8930   80.6171   12.3573 C.3     1  UNL1        0.0063
     19 C          65.0965   91.0804   13.7236 C.2     1  UNL1        0.2036
     20 O          66.5618   91.4000   13.6983 O.2     1  UNL1       -0.2863
     21 C          64.2929   91.1450   12.4586 C.ar    1  UNL1        0.0951
     22 C          64.8636   91.8089   11.2406 C.ar    1  UNL1        0.1454
     23 F          66.2379   92.4081   11.2876 F       1  UNL1       -0.2040
     24 C          64.0601   91.8735    9.9757 C.ar    1  UNL1        0.0312
     25 C          62.6858   91.2742    9.9287 C.ar    1  UNL1        0.0204
     26 C          62.1151   90.6103   11.1467 C.ar    1  UNL1        0.0920
     27 C          62.9186   90.5457   12.4117 C.ar    1  UNL1        0.1598
     28 F          62.3478   89.8819   13.6296 F       1  UNL1       -0.2026
     29 N          60.7408   90.0111   11.0997 N.pl3   1  UNL1       -0.2166
     30 H          59.9864   90.4753   11.5294 H       1  UNL1        0.1734
     31 S          60.5160   88.7045   10.3981 S.O2    1  UNL1        0.0540
     32 O          59.9954   89.4384    9.1980 O.2     1  UNL1       -0.1545
     33 O          61.0366   87.9704   11.5982 O.2     1  UNL1       -0.1545
     34 C          60.2912   87.3979    9.6965 C.3     1  UNL1        0.1724
     35 C          61.2721   86.2761    9.8679 C.3     1  UNL1        0.0273
     36 C          62.2172   85.9297    8.7558 C.3     1  UNL1        0.0019
@<TRIPOS>BOND
     1    17    18    1
     2    18    16    1
     3    16    10    1
     4    10    11   ar
     5    11    12   ar
     6    12    13   ar
     7    13     1    1
     8     1     2    2
     9     2     3    1
    10     3     4    2
    11     4     5    1
    12     5     6    2
    13     6     7    1
    14     7    19    1
    15    19    20    2
    16    19    21    1
    17    21    22   ar
    18    22    23    1
    19    22    24   ar
    20    24    25   ar
    21    25    26   ar
    22    26    29    1
    23    29    31    1
    24    31    32    2
    25    31    33    2
    26    31    34    1
    27    34    35    1
    28    35    36    1
    29    26    27   ar
    30    27    28    1
    31     7     8    2
    32     8     9    1
    33    13    14   ar
    34    14    15   ar
    35    15    10   ar
    36     9     1    1
    37     8     4    1
    38    27    21   ar
    39    29    30    1
@<TRIPOS>MOLECULE
*****
 36 39 0 0 0
SMALL
GASTEIGER

@<TRIPOS>ATOM
      1 C          65.7665   93.1215   12.5223 C.2     1  UNL1        0.0307
      2 C          66.3087   93.2345   13.9163 C.2     1  UNL1        0.2320
      3 N          65.8199   92.3066   14.9886 N.2     1  UNL1       -0.0311
      4 C          64.7889   91.2657   14.6670 C.2     1  UNL1        0.3721
      5 N          64.1219   90.2194   15.5101 N.2     1  UNL1       -0.0307
      6 C          63.1675   89.4599   14.6371 C.2     1  UNL1        0.2390
      7 C          63.2446   90.0367   13.2545 C.2     1  UNL1        0.0896
      8 C          64.2467   91.1527   13.2730 C.2     1  UNL1        0.0774
      9 C          64.7355   92.0806   12.2007 C.3     1  UNL1        0.0646
     10 C          67.2330   95.9054    9.3052 C.ar    1  UNL1        0.0590
     11 C          67.2831   94.4214    9.0929 C.ar    1  UNL1        0.0147
     12 C          66.7943   93.4934   10.1653 C.ar    1  UNL1        0.0026
     13 C          66.2554   94.0495   11.4499 C.ar    1  UNL1        0.0192
     14 C          66.2052   95.5336   11.6622 C.ar    1  UNL1        0.0982
     15 N          66.6940   96.4615   10.5899 N.ar    1  UNL1       -0.2482
     16 C          67.7218   96.8334    8.2328 C.3     1  UNL1        0.0458
     17 C          65.5484   96.8462    6.8093 C.3     1  UNL1        0.0004
     18 C          67.0461   96.8542    6.8939 C.3     1  UNL1        0.0063
     19 C          62.4578   89.5780   12.0627 C.2     1  UNL1        0.2036
     20 O          61.7675   90.5821   11.1880 O.2     1  UNL1       -0.2863
     21 C          62.3613   88.1151   11.7455 C.ar    1  UNL1        0.0951
     22 C          61.4837   87.6474   10.6224 C.ar    1  UNL1        0.1454
     23 F          60.7027   88.6427    9.8166 F       1  UNL1       -0.2040
     24 C          61.3872   86.1845   10.3053 C.ar    1  UNL1        0.0312
     25 C          62.1682   85.1893   11.1111 C.ar    1  UNL1        0.0204
     26 C          63.0458   85.6569   12.2341 C.ar    1  UNL1        0.0920
     27 C          63.1423   87.1198   12.5513 C.ar    1  UNL1        0.1598
     28 F          64.0198   87.5873   13.6744 F       1  UNL1       -0.2026
     29 N          63.8268   84.6616   13.0400 N.pl3   1  UNL1       -0.2166
     30 H          64.8086   84.7224   13.0798 H       1  UNL1        0.1734
     31 S          63.1118   83.5737   13.7852 S.O2    1  UNL1        0.0540
     32 O          62.6929   84.5647   14.8303 O.2     1  UNL1       -0.1545
     33 O          63.5306   82.5825   12.7400 O.2     1  UNL1       -0.1545
     34 C          62.3969   82.4857   14.5303 C.3     1  UNL1        0.1724
     35 C          61.8946   81.2784   13.7953 C.3     1  UNL1        0.0273
     36 C          60.5637   80.6843   14.1501 C.3     1  UNL1        0.0019
@<TRIPOS>BOND
     1    17    18    1
     2    18    16    1
     3    16    10    1
     4    10    11   ar
     5    11    12   ar
     6    12    13   ar
     7    13     1    1
     8     1     2    2
     9     2     3    1
    10     3     4    2
    11     4     5    1
    12     5     6    2
    13     6     7    1
    14     7    19    1
    15    19    20    2
    16    19    21    1
    17    21    22   ar
    18    22    23    1
    19    22    24   ar
    20    24    25   ar
    21    25    26   ar
    22    26    29    1
    23    29    31    1
    24    31    32    2
    25    31    33    2
    26    31    34    1
    27    34    35    1
    28    35    36    1
    29    26    27   ar
    30    27    28    1
    31     7     8    2
    32     8     9    1
    33    13    14   ar
    34    14    15   ar
    35    15    10   ar
    36     9     1    1
    37     8     4    1
    38    27    21   ar
    39    29    30    1
@<TRIPOS>MOLECULE
*****
 36 39 0 0 0
SMALL
GASTEIGER

@<TRIPOS>ATOM
      1 C          63.4093   90.6598   11.7118 C.2     1  UNL1        0.0307
      2 C          62.4805   91.2648   10.7013 C.2     1  UNL1        0.2320
      3 N          61.5051   90.3957    9.9643 N.2     1  UNL1       -0.0311
      4 C          61.4585   88.9216   10.2380 C.2     1  UNL1        0.3721
      5 N          60.6102   87.8218    9.6712 N.2     1  UNL1       -0.0307
      6 C          61.0148   86.5372   10.3315 C.2     1  UNL1        0.2390
      7 C          62.1131   86.8430   11.3063 C.2     1  UNL1        0.0896
      8 C          62.3873   88.3166   11.2485 C.2     1  UNL1        0.0774
      9 C          63.3627   89.1857   11.9854 C.3     1  UNL1        0.0646
     10 C          66.3357   93.2672   13.9229 C.ar    1  UNL1        0.0590
     11 C          66.2746   93.3117   12.4248 C.ar    1  UNL1        0.0147
     12 C          65.2991   92.4426   11.6878 C.ar    1  UNL1        0.0026
     13 C          64.3848   91.5290   12.4488 C.ar    1  UNL1        0.0192
     14 C          64.4459   91.4844   13.9469 C.ar    1  UNL1        0.0982
     15 N          65.4213   92.3535   14.6839 N.ar    1  UNL1       -0.2482
     16 C          67.3111   94.1362   14.6599 C.3     1  UNL1        0.0458
     17 C          68.6630   92.1484   15.6452 C.3     1  UNL1        0.0004
     18 C          68.1539   93.5550   15.7561 C.3     1  UNL1        0.0063
     19 C          62.8142   85.8496   12.1848 C.2     1  UNL1        0.2036
     20 O          63.1404   86.2035   13.6054 O.2     1  UNL1       -0.2863
     21 C          63.1891   84.5022   11.6426 C.ar    1  UNL1        0.0951
     22 C          63.5073   84.3422   10.1855 C.ar    1  UNL1        0.1454
     23 F          63.4508   85.5295    9.2706 F       1  UNL1       -0.2040
     24 C          63.8822   82.9948    9.6433 C.ar    1  UNL1        0.0312
     25 C          63.9388   81.8074   10.5581 C.ar    1  UNL1        0.0204
     26 C          63.6205   81.9674   12.0152 C.ar    1  UNL1        0.0920
     27 C          63.2456   83.3149   12.5574 C.ar    1  UNL1        0.1598
     28 F          62.9274   83.4748   14.0145 F       1  UNL1       -0.2026
     29 N          63.6771   80.7801   12.9300 N.pl3   1  UNL1       -0.2166
     30 H          64.5475   80.4073   13.1995 H       1  UNL1        0.1734
     31 S          62.4074   80.1608   13.4344 S.O2    1  UNL1        0.0540
     32 O          62.3336   79.3085   12.2024 O.2     1  UNL1       -0.1545
     33 O          62.4811   81.0131   14.6666 O.2     1  UNL1       -0.1545
     34 C          61.1377   79.5415   13.9388 C.3     1  UNL1        0.1724
     35 C          59.9414   80.4030   14.2155 C.3     1  UNL1        0.0273
     36 C          58.6369   79.7727   14.6042 C.3     1  UNL1        0.0019
@<TRIPOS>BOND
     1    17    18    1
     2    18    16    1
     3    16    10    1
     4    10    11   ar
     5    11    12   ar
     6    12    13   ar
     7    13     1    1
     8     1     2    2
     9     2     3    1
    10     3     4    2
    11     4     5    1
    12     5     6    2
    13     6     7    1
    14     7    19    1
    15    19    20    2
    16    19    21    1
    17    21    22   ar
    18    22    23    1
    19    22    24   ar
    20    24    25   ar
    21    25    26   ar
    22    26    29    1
    23    29    31    1
    24    31    32    2
    25    31    33    2
    26    31    34    1
    27    34    35    1
    28    35    36    1
    29    26    27   ar
    30    27    28    1
    31     7     8    2
    32     8     9    1
    33    13    14   ar
    34    14    15   ar
    35    15    10   ar
    36     9     1    1
    37     8     4    1
    38    27    21   ar
    39    29    30    1
@<TRIPOS>MOLECULE
*****
 36 39 0 0 0
SMALL
GASTEIGER

@<TRIPOS>ATOM
      1 C          62.1520   86.6278   10.9989 C.2     1  UNL1        0.0307
      2 C          62.4919   85.1670   11.0208 C.2     1  UNL1        0.2320
      3 N          63.3095   84.6040   12.1454 N.2     1  UNL1       -0.0311
      4 C          63.7872   85.5018   13.2479 C.2     1  UNL1        0.3721
      5 N          64.6035   85.2342   14.4777 N.2     1  UNL1       -0.0307
      6 C          64.7681   86.5296   15.2157 C.2     1  UNL1        0.2390
      7 C          64.0536   87.5978   14.4421 C.2     1  UNL1        0.0896
      8 C          63.4473   86.9626   13.2260 C.2     1  UNL1        0.0774
      9 C          62.6297   87.5256   12.1015 C.3     1  UNL1        0.0646
     10 C          59.6992   88.3168    7.6253 C.ar    1  UNL1        0.0590
     11 C          60.2533   89.2288    8.6794 C.ar    1  UNL1        0.0147
     12 C          61.0709   88.6658    9.8040 C.ar    1  UNL1        0.0026
     13 C          61.3344   87.1908    9.8744 C.ar    1  UNL1        0.0192
     14 C          60.7803   86.2788    8.8202 C.ar    1  UNL1        0.0982
     15 N          59.9627   86.8418    7.6957 N.ar    1  UNL1       -0.2482
     16 C          58.8816   88.8798    6.5008 C.3     1  UNL1        0.0458
     17 C          58.2747   91.1278    5.3484 C.3     1  UNL1        0.0004
     18 C          59.3072   90.1507    5.8273 C.3     1  UNL1        0.0063
     19 C          63.9614   89.0469   14.8186 C.2     1  UNL1        0.2036
     20 O          63.7594   89.4379   16.2525 O.2     1  UNL1       -0.2863
     21 C          64.0713   90.1050   13.7610 C.ar    1  UNL1        0.0951
     22 C          62.9041   90.3929   12.8640 C.ar    1  UNL1        0.1454
     23 F          61.6269   89.6228   13.0246 F       1  UNL1       -0.2040
     24 C          63.0139   91.4510   11.8065 C.ar    1  UNL1        0.0312
     25 C          64.2911   92.2212   11.6460 C.ar    1  UNL1        0.0204
     26 C          65.4583   91.9333   12.5430 C.ar    1  UNL1        0.0920
     27 C          65.3484   90.8752   13.6005 C.ar    1  UNL1        0.1598
     28 F          66.5157   90.5873   14.4974 F       1  UNL1       -0.2026
     29 N          66.7354   92.7034   12.3825 N.pl3   1  UNL1       -0.2166
     30 H          67.5701   92.3600   12.7756 H       1  UNL1        0.1734
     31 S          66.7407   93.9970   11.6229 S.O2    1  UNL1        0.0540
     32 O          67.2747   93.2857   10.4152 O.2     1  UNL1       -0.1545
     33 O          66.2067   94.7084   12.8308 O.2     1  UNL1       -0.1545
     34 C          66.7460   95.2905   10.8635 C.3     1  UNL1        0.1724
     35 C          66.7203   95.2798    9.3638 C.3     1  UNL1        0.0273
     36 C          67.6017   96.2165    8.5919 C.3     1  UNL1        0.0019
@<TRIPOS>BOND
     1    17    18    1
     2    18    16    1
     3    16    10    1
     4    10    11   ar
     5    11    12   ar
     6    12    13   ar
     7    13     1    1
     8     1     2    2
     9     2     3    1
    10     3     4    2
    11     4     5    1
    12     5     6    2
    13     6     7    1
    14     7    19    1
    15    19    20    2
    16    19    21    1
    17    21    22   ar
    18    22    23    1
    19    22    24   ar
    20    24    25   ar
    21    25    26   ar
    22    26    29    1
    23    29    31    1
    24    31    32    2
    25    31    33    2
    26    31    34    1
    27    34    35    1
    28    35    36    1
    29    26    27   ar
    30    27    28    1
    31     7     8    2
    32     8     9    1
    33    13    14   ar
    34    14    15   ar
    35    15    10   ar
    36     9     1    1
    37     8     4    1
    38    27    21   ar
    39    29    30    1
