@<TRIPOS>MOLECULE
*****
 25 27 0 0 0
SMALL
GASTEIGER

@<TRIPOS>ATOM
      1 N          64.4585   90.9102   13.4504 N.am    1  UNL1       -0.2185
      2 C          63.8837   91.1356   12.0834 C.2     1  UNL1        0.2546
      3 O          62.8117   90.3137   11.4312 O.2     1  UNL1       -0.2723
      4 C          64.5692   92.3271   11.4830 C.3     1  UNL1        0.1795
      5 N          65.5676   92.8381   12.4790 N.am    1  UNL1       -0.2783
      6 C          65.4991   91.9624   13.6949 C.2     1  UNL1        0.1482
      7 S          66.3262   92.1127   14.9372 S.2     1  UNL1       -0.0177
      8 C          63.2695   87.6499   16.3152 C.ar    1  UNL1        0.0587
      9 C          62.8557   89.0674   16.5786 C.ar    1  UNL1        0.0167
     10 C          63.2520   90.1542   15.6236 C.ar    1  UNL1        0.0166
     11 C          64.0621   89.8234   14.4054 C.ar    1  UNL1        0.0607
     12 C          64.4759   88.4059   14.1420 C.ar    1  UNL1        0.0279
     13 C          64.0796   87.3192   15.0969 C.ar    1  UNL1        0.0722
     14 CL         64.4934   85.9016   14.8335 Cl      1  UNL1       -0.0809
     15 C          62.4936   85.2087   16.7492 C.3     1  UNL1        0.1123
     16 N          62.8731   86.5631   17.2701 N.pl3   1  UNL1       -0.3034
     17 C          62.8563   86.8308   18.7459 C.3     1  UNL1        0.1123
     18 C          66.4751   94.0177   12.2919 C.3     1  UNL1        0.1196
     19 C          66.5202   94.7273   10.9711 C.ar    1  UNL1       -0.0022
     20 C          67.2645   94.1205    9.8188 C.ar    1  UNL1       -0.0003
     21 C          67.3096   94.8300    8.4980 C.ar    1  UNL1        0.0294
     22 C          66.6104   96.1464    8.3296 C.ar    1  UNL1        0.1401
     23 F          66.6556   96.8560    7.0088 F       1  UNL1       -0.2042
     24 C          65.8662   96.7532    9.4819 C.ar    1  UNL1        0.0294
     25 C          65.8211   96.0436   10.8027 C.ar    1  UNL1       -0.0003
@<TRIPOS>BOND
     1    15    16    1
     2    16    17    1
     3    16     8    1
     4     8     9   ar
     5     9    10   ar
     6    10    11   ar
     7    11     1    1
     8     1     2   am
     9     2     3    2
    10     2     4    1
    11     4     5    1
    12     5    18    1
    13    18    19    1
    14    19    20   ar
    15    20    21   ar
    16    21    22   ar
    17    22    23    1
    18    22    24   ar
    19    24    25   ar
    20     5     6    1
    21     6     7    2
    22    11    12   ar
    23    12    13   ar
    24    13    14    1
    25    13     8   ar
    26     6     1    1
    27    25    19   ar
@<TRIPOS>MOLECULE
*****
 25 27 0 0 0
SMALL
GASTEIGER

@<TRIPOS>ATOM
      1 N          65.7264   92.4987   13.6824 N.am    1  UNL1       -0.2185
      2 C          66.3579   92.6314   15.0365 C.2     1  UNL1        0.2546
      3 O          67.5770   93.4412   15.3653 O.2     1  UNL1       -0.2723
      4 C          65.5564   91.8121   16.0041 C.3     1  UNL1        0.1795
      5 N          64.4294   91.1731   15.2481 N.am    1  UNL1       -0.2783
      6 C          64.5346   91.5974   13.8132 C.2     1  UNL1        0.1482
      7 S          63.6101   91.1916   12.7038 S.2     1  UNL1       -0.0177
      8 C          67.1564   94.4600    9.8932 C.ar    1  UNL1        0.0587
      9 C          66.3579   95.2468   10.8897 C.ar    1  UNL1        0.0167
     10 C          65.8813   94.5930   12.1528 C.ar    1  UNL1        0.0166
     11 C          66.2031   93.1524   12.4193 C.ar    1  UNL1        0.0607
     12 C          67.0016   92.3656   11.4227 C.ar    1  UNL1        0.0279
     13 C          67.4783   93.0194   10.1596 C.ar    1  UNL1        0.0722
     14 CL         68.2768   92.2325    9.1630 Cl      1  UNL1       -0.0809
     15 C          67.7431   96.6077    8.5542 C.3     1  UNL1        0.1123
     16 N          67.6331   95.1137    8.6301 N.pl3   1  UNL1       -0.3034
     17 C          67.9998   94.2735    7.4429 C.3     1  UNL1        0.1123
     18 C          63.3814   90.2685   15.8255 C.3     1  UNL1        0.1196
     19 C          63.5870   88.7827   15.8195 C.ar    1  UNL1       -0.0022
     20 C          63.0096   87.9412   16.9188 C.ar    1  UNL1       -0.0003
     21 C          63.2152   86.4554   16.9128 C.ar    1  UNL1        0.0294
     22 C          63.9983   85.8111   15.8075 C.ar    1  UNL1        0.1401
     23 F          64.2039   84.3252   15.8015 F       1  UNL1       -0.2042
     24 C          64.5757   86.6526   14.7082 C.ar    1  UNL1        0.0294
     25 C          64.3700   88.1384   14.7142 C.ar    1  UNL1       -0.0003
@<TRIPOS>BOND
     1    15    16    1
     2    16    17    1
     3    16     8    1
     4     8     9   ar
     5     9    10   ar
     6    10    11   ar
     7    11     1    1
     8     1     2   am
     9     2     3    2
    10     2     4    1
    11     4     5    1
    12     5    18    1
    13    18    19    1
    14    19    20   ar
    15    20    21   ar
    16    21    22   ar
    17    22    23    1
    18    22    24   ar
    19    24    25   ar
    20     5     6    1
    21     6     7    2
    22    11    12   ar
    23    12    13   ar
    24    13    14    1
    25    13     8   ar
    26     6     1    1
    27    25    19   ar
@<TRIPOS>MOLECULE
*****
 25 27 0 0 0
SMALL
GASTEIGER

@<TRIPOS>ATOM
      1 N          63.2136   88.1842   12.5506 N.am    1  UNL1       -0.2185
      2 C          62.8423   89.2066   11.5177 C.2     1  UNL1        0.2546
      3 O          62.3061   88.9201   10.1464 O.2     1  UNL1       -0.2723
      4 C          63.1014   90.5658   12.0968 C.3     1  UNL1        0.1795
      5 N          63.6328   90.3835   13.4876 N.am    1  UNL1       -0.2783
      6 C          63.7021   88.9115   13.7680 C.2     1  UNL1        0.1482
      7 S          64.1767   88.2782   15.0423 S.2     1  UNL1       -0.0177
      8 C          62.9144   83.7189   12.0795 C.ar    1  UNL1        0.0587
      9 C          62.2452   84.6241   11.0882 C.ar    1  UNL1        0.0167
     10 C          62.3449   86.1126   11.2453 C.ar    1  UNL1        0.0166
     11 C          63.1139   86.6957   12.3935 C.ar    1  UNL1        0.0607
     12 C          63.7831   85.7905   13.3848 C.ar    1  UNL1        0.0279
     13 C          63.6834   84.3021   13.2277 C.ar    1  UNL1        0.0722
     14 CL         64.3527   83.3968   14.2191 Cl      1  UNL1       -0.0809
     15 C          62.0819   81.4157   12.9466 C.3     1  UNL1        0.1123
     16 N          62.8147   82.2305   11.9224 N.pl3   1  UNL1       -0.3034
     17 C          63.4478   81.5568   10.7412 C.3     1  UNL1        0.1123
     18 C          64.0258   91.4804   14.4322 C.3     1  UNL1        0.1196
     19 C          65.4711   91.8469   14.5962 C.ar    1  UNL1       -0.0022
     20 C          66.4337   91.6259   13.4673 C.ar    1  UNL1       -0.0003
     21 C          67.8789   91.9923   13.6313 C.ar    1  UNL1        0.0294
     22 C          68.3615   92.5799   14.9242 C.ar    1  UNL1        0.1401
     23 F          69.8068   92.9465   15.0883 F       1  UNL1       -0.2042
     24 C          67.3989   92.8010   16.0532 C.ar    1  UNL1        0.0294
     25 C          65.9537   92.4345   15.8892 C.ar    1  UNL1       -0.0003
@<TRIPOS>BOND
     1    15    16    1
     2    16    17    1
     3    16     8    1
     4     8     9   ar
     5     9    10   ar
     6    10    11   ar
     7    11     1    1
     8     1     2   am
     9     2     3    2
    10     2     4    1
    11     4     5    1
    12     5    18    1
    13    18    19    1
    14    19    20   ar
    15    20    21   ar
    16    21    22   ar
    17    22    23    1
    18    22    24   ar
    19    24    25   ar
    20     5     6    1
    21     6     7    2
    22    11    12   ar
    23    12    13   ar
    24    13    14    1
    25    13     8   ar
    26     6     1    1
    27    25    19   ar
@<TRIPOS>MOLECULE
*****
 25 27 0 0 0
SMALL
GASTEIGER

@<TRIPOS>ATOM
      1 N          63.1522   88.3699   12.7454 N.am    1  UNL1       -0.2185
      2 C          63.8248   87.5709   13.8221 C.2     1  UNL1        0.2546
      3 O          63.9326   86.0757   13.8734 O.2     1  UNL1       -0.2723
      4 C          64.3707   88.5296   14.8384 C.3     1  UNL1        0.1795
      5 N          64.0355   89.9212   14.3899 N.am    1  UNL1       -0.2783
      6 C          63.2824   89.8225   13.0964 C.2     1  UNL1        0.1482
      7 S          62.7525   90.9742   12.2946 S.2     1  UNL1       -0.0177
      8 C          61.1034   86.7022    9.1025 C.ar    1  UNL1        0.0587
      9 C          61.8063   85.7813   10.0552 C.ar    1  UNL1        0.0167
     10 C          62.4892   86.3372   11.2695 C.ar    1  UNL1        0.0166
     11 C          62.4692   87.8140   11.5311 C.ar    1  UNL1        0.0607
     12 C          61.7663   88.7350   10.5784 C.ar    1  UNL1        0.0279
     13 C          61.0834   88.1791    9.3641 C.ar    1  UNL1        0.0722
     14 CL         60.3804   89.1001    8.4113 Cl      1  UNL1       -0.0809
     15 C          61.1674   85.2374    6.9577 C.3     1  UNL1        0.1123
     16 N          60.4204   86.1463    7.8882 N.pl3   1  UNL1       -0.3034
     17 C          58.9905   86.4993    7.6044 C.3     1  UNL1        0.1123
     18 C          64.3909   91.1889   15.1086 C.3     1  UNL1        0.1196
     19 C          65.7938   91.7167   15.0492 C.ar    1  UNL1       -0.0022
     20 C          66.6486   91.4408   13.8479 C.ar    1  UNL1       -0.0003
     21 C          68.0514   91.9687   13.7885 C.ar    1  UNL1        0.0294
     22 C          68.5993   92.7724   14.9303 C.ar    1  UNL1        0.1401
     23 F          70.0021   93.3003   14.8708 F       1  UNL1       -0.2042
     24 C          67.7444   93.0483   16.1315 C.ar    1  UNL1        0.0294
     25 C          66.3416   92.5205   16.1910 C.ar    1  UNL1       -0.0003
@<TRIPOS>BOND
     1    15    16    1
     2    16    17    1
     3    16     8    1
     4     8     9   ar
     5     9    10   ar
     6    10    11   ar
     7    11     1    1
     8     1     2   am
     9     2     3    2
    10     2     4    1
    11     4     5    1
    12     5    18    1
    13    18    19    1
    14    19    20   ar
    15    20    21   ar
    16    21    22   ar
    17    22    23    1
    18    22    24   ar
    19    24    25   ar
    20     5     6    1
    21     6     7    2
    22    11    12   ar
    23    12    13   ar
    24    13    14    1
    25    13     8   ar
    26     6     1    1
    27    25    19   ar
@<TRIPOS>MOLECULE
*****
 25 27 0 0 0
SMALL
GASTEIGER

@<TRIPOS>ATOM
      1 N          63.6020   90.0894   12.1747 N.am    1  UNL1       -0.2185
      2 C          63.9359   89.7676   13.6012 C.2     1  UNL1        0.2546
      3 O          63.4626   88.5689   14.3687 O.2     1  UNL1       -0.2723
      4 C          64.8261   90.8551   14.1256 C.3     1  UNL1        0.1795
      5 N          65.0423   91.8490   13.0231 N.am    1  UNL1       -0.2783
      6 C          64.2858   91.3757   11.8174 C.2     1  UNL1        0.1482
      7 S          64.2240   92.0674   10.4879 S.2     1  UNL1       -0.0177
      8 C          61.0048   87.6279    9.4460 C.ar    1  UNL1        0.0587
      9 C          61.0797   89.1155    9.2696 C.ar    1  UNL1        0.0167
     10 C          61.9454   89.9360   10.1791 C.ar    1  UNL1        0.0166
     11 C          62.7362   89.2689   11.2651 C.ar    1  UNL1        0.0607
     12 C          62.6613   87.7812   11.4416 C.ar    1  UNL1        0.0279
     13 C          61.7956   86.9607   10.5320 C.ar    1  UNL1        0.0722
     14 CL         61.7207   85.4729   10.7085 Cl      1  UNL1       -0.0809
     15 C          60.7566   85.7655    7.6516 C.3     1  UNL1        0.1123
     16 N          60.1390   86.8073    8.5365 N.pl3   1  UNL1       -0.3034
     17 C          58.6557   87.0287    8.5118 C.3     1  UNL1        0.1123
     18 C          65.8699   93.0970   13.1109 C.3     1  UNL1        0.1196
     19 C          66.4059   93.7309   11.8616 C.ar    1  UNL1       -0.0022
     20 C          67.2453   92.9270   10.9134 C.ar    1  UNL1       -0.0003
     21 C          67.7813   93.5609    9.6641 C.ar    1  UNL1        0.0294
     22 C          67.4780   94.9987    9.3630 C.ar    1  UNL1        0.1401
     23 F          68.0141   95.6326    8.1137 F       1  UNL1       -0.2042
     24 C          66.6386   95.8026   10.3112 C.ar    1  UNL1        0.0294
     25 C          66.1026   95.1687   11.5606 C.ar    1  UNL1       -0.0003
@<TRIPOS>BOND
     1    15    16    1
     2    16    17    1
     3    16     8    1
     4     8     9   ar
     5     9    10   ar
     6    10    11   ar
     7    11     1    1
     8     1     2   am
     9     2     3    2
    10     2     4    1
    11     4     5    1
    12     5    18    1
    13    18    19    1
    14    19    20   ar
    15    20    21   ar
    16    21    22   ar
    17    22    23    1
    18    22    24   ar
    19    24    25   ar
    20     5     6    1
    21     6     7    2
    22    11    12   ar
    23    12    13   ar
    24    13    14    1
    25    13     8   ar
    26     6     1    1
    27    25    19   ar
@<TRIPOS>MOLECULE
*****
 25 27 0 0 0
SMALL
GASTEIGER

@<TRIPOS>ATOM
      1 N          61.1003   87.5145    9.5213 N.am    1  UNL1       -0.2185
      2 C          61.2441   88.9812    9.8008 C.2     1  UNL1        0.2546
      3 O          62.0749   89.5940   10.8891 O.2     1  UNL1       -0.2723
      4 C          60.4113   89.7275    8.8011 C.3     1  UNL1        0.1795
      5 N          59.7528   88.7220    7.9037 N.am    1  UNL1       -0.2783
      6 C          60.1786   87.3543    8.3488 C.2     1  UNL1        0.1482
      7 S          59.7568   86.0547    7.7300 S.2     1  UNL1       -0.0177
      8 C          63.0855   84.1804   11.8001 C.ar    1  UNL1        0.0587
      9 C          62.1985   85.1545   12.5171 C.ar    1  UNL1        0.0167
     10 C          61.5368   86.2659   11.7575 C.ar    1  UNL1        0.0166
     11 C          61.7621   86.4031   10.2809 C.ar    1  UNL1        0.0607
     12 C          62.6491   85.4289    9.5639 C.ar    1  UNL1        0.0279
     13 C          63.3108   84.3176   10.3235 C.ar    1  UNL1        0.0722
     14 CL         64.1978   83.3433    9.6064 Cl      1  UNL1       -0.0809
     15 C          63.4240   81.6411   12.2331 C.3     1  UNL1        0.1123
     16 N          63.7472   83.0690   12.5596 N.pl3   1  UNL1       -0.3034
     17 C          64.7321   83.3855   13.6458 C.3     1  UNL1        0.1123
     18 C          58.8304   89.0301    6.7617 C.3     1  UNL1        0.1196
     19 C          59.1359   90.1716    5.8377 C.ar    1  UNL1       -0.0022
     20 C          60.5453   90.4136    5.3851 C.ar    1  UNL1       -0.0003
     21 C          60.8508   91.5550    4.4612 C.ar    1  UNL1        0.0294
     22 C          59.7469   92.4545    3.9898 C.ar    1  UNL1        0.1401
     23 F          60.0524   93.5960    3.0659 F       1  UNL1       -0.2042
     24 C          58.3375   92.2125    4.4425 C.ar    1  UNL1        0.0294
     25 C          58.0319   91.0710    5.3664 C.ar    1  UNL1       -0.0003
@<TRIPOS>BOND
     1    15    16    1
     2    16    17    1
     3    16     8    1
     4     8     9   ar
     5     9    10   ar
     6    10    11   ar
     7    11     1    1
     8     1     2   am
     9     2     3    2
    10     2     4    1
    11     4     5    1
    12     5    18    1
    13    18    19    1
    14    19    20   ar
    15    20    21   ar
    16    21    22   ar
    17    22    23    1
    18    22    24   ar
    19    24    25   ar
    20     5     6    1
    21     6     7    2
    22    11    12   ar
    23    12    13   ar
    24    13    14    1
    25    13     8   ar
    26     6     1    1
    27    25    19   ar
@<TRIPOS>MOLECULE
*****
 25 27 0 0 0
SMALL
GASTEIGER

@<TRIPOS>ATOM
      1 N          64.0176   89.7765   15.0930 N.am    1  UNL1       -0.2185
      2 C          63.4892   90.2485   16.4151 C.2     1  UNL1        0.2546
      3 O          63.4146   91.6738   16.8767 O.2     1  UNL1       -0.2723
      4 C          63.0484   89.0452   17.1945 C.3     1  UNL1        0.1795
      5 N          63.3044   87.8293   16.3542 N.am    1  UNL1       -0.2783
      6 C          63.9033   88.2813   15.0554 C.2     1  UNL1        0.1482
      7 S          64.3157   87.3939   13.9185 S.2     1  UNL1       -0.0177
      8 C          65.6575   92.3873   11.8151 C.ar    1  UNL1        0.0587
      9 C          66.3939   92.2655   13.1162 C.ar    1  UNL1        0.0167
     10 C          65.8473   91.3952   14.2088 C.ar    1  UNL1        0.0166
     11 C          64.5642   90.6468   14.0004 C.ar    1  UNL1        0.0607
     12 C          63.8278   90.7686   12.6993 C.ar    1  UNL1        0.0279
     13 C          64.3744   91.6388   11.6067 C.ar    1  UNL1        0.0722
     14 CL         63.6379   91.7606   10.3056 Cl      1  UNL1       -0.0809
     15 C          65.6667   94.6445   10.5287 C.3     1  UNL1        0.1123
     16 N          66.2041   93.2576   10.7225 N.pl3   1  UNL1       -0.3034
     17 C          67.2881   92.7409    9.8237 C.3     1  UNL1        0.1123
     18 C          63.0126   86.4106   16.7441 C.3     1  UNL1        0.1196
     19 C          63.3140   85.2933   15.7898 C.ar    1  UNL1       -0.0022
     20 C          62.1928   84.5114   15.1721 C.ar    1  UNL1       -0.0003
     21 C          62.4941   83.3942   14.2178 C.ar    1  UNL1        0.0294
     22 C          63.9168   83.0587   13.8811 C.ar    1  UNL1        0.1401
     23 F          64.2183   81.9414   12.9267 F       1  UNL1       -0.2042
     24 C          65.0381   83.8406   14.4987 C.ar    1  UNL1        0.0294
     25 C          64.7367   84.9579   15.4531 C.ar    1  UNL1       -0.0003
@<TRIPOS>BOND
     1    15    16    1
     2    16    17    1
     3    16     8    1
     4     8     9   ar
     5     9    10   ar
     6    10    11   ar
     7    11     1    1
     8     1     2   am
     9     2     3    2
    10     2     4    1
    11     4     5    1
    12     5    18    1
    13    18    19    1
    14    19    20   ar
    15    20    21   ar
    16    21    22   ar
    17    22    23    1
    18    22    24   ar
    19    24    25   ar
    20     5     6    1
    21     6     7    2
    22    11    12   ar
    23    12    13   ar
    24    13    14    1
    25    13     8   ar
    26     6     1    1
    27    25    19   ar
@<TRIPOS>MOLECULE
*****
 25 27 0 0 0
SMALL
GASTEIGER

@<TRIPOS>ATOM
      1 N          63.4668   86.3850   13.0018 N.am    1  UNL1       -0.2185
      2 C          64.2618   86.9569   14.1379 C.2     1  UNL1        0.2546
      3 O          65.0320   86.1720   15.1582 O.2     1  UNL1       -0.2723
      4 C          64.1516   88.4515   14.0748 C.3     1  UNL1        0.1795
      5 N          63.2884   88.8033   12.8996 N.am    1  UNL1       -0.2783
      6 C          62.8652   87.5261   12.2365 C.2     1  UNL1        0.1482
      7 S          61.9933   87.4105   11.0213 S.2     1  UNL1       -0.0177
      8 C          62.9732   82.0133   12.0556 C.ar    1  UNL1        0.0587
      9 C          63.6975   82.9111   11.0968 C.ar    1  UNL1        0.0167
     10 C          63.8620   84.3683   11.4122 C.ar    1  UNL1        0.0166
     11 C          63.3022   84.9277   12.6864 C.ar    1  UNL1        0.0607
     12 C          62.5780   84.0300   13.6452 C.ar    1  UNL1        0.0279
     13 C          62.4134   82.5728   13.3298 C.ar    1  UNL1        0.0722
     14 CL         61.6891   81.6750   14.2887 Cl      1  UNL1       -0.0809
     15 C          62.5534   79.5739   12.8447 C.3     1  UNL1        0.1123
     16 N          62.8086   80.5561   11.7402 N.pl3   1  UNL1       -0.3034
     17 C          62.8994   80.0812   10.3203 C.3     1  UNL1        0.1123
     18 C          62.9141   90.1890   12.4640 C.3     1  UNL1        0.1196
     19 C          63.9848   91.1963   12.1656 C.ar    1  UNL1       -0.0022
     20 C          64.9103   91.6519   13.2545 C.ar    1  UNL1       -0.0003
     21 C          65.9810   92.6591   12.9561 C.ar    1  UNL1        0.0294
     22 C          66.1261   93.2108   11.5688 C.ar    1  UNL1        0.1401
     23 F          67.1967   94.2181   11.2704 F       1  UNL1       -0.2042
     24 C          65.2005   92.7552   10.4799 C.ar    1  UNL1        0.0294
     25 C          64.1298   91.7479   10.7783 C.ar    1  UNL1       -0.0003
@<TRIPOS>BOND
     1    15    16    1
     2    16    17    1
     3    16     8    1
     4     8     9   ar
     5     9    10   ar
     6    10    11   ar
     7    11     1    1
     8     1     2   am
     9     2     3    2
    10     2     4    1
    11     4     5    1
    12     5    18    1
    13    18    19    1
    14    19    20   ar
    15    20    21   ar
    16    21    22   ar
    17    22    23    1
    18    22    24   ar
    19    24    25   ar
    20     5     6    1
    21     6     7    2
    22    11    12   ar
    23    12    13   ar
    24    13    14    1
    25    13     8   ar
    26     6     1    1
    27    25    19   ar
@<TRIPOS>MOLECULE
*****
 25 27 0 0 0
SMALL
GASTEIGER

@<TRIPOS>ATOM
      1 N          63.4685   86.4916   13.0833 N.am    1  UNL1       -0.2185
      2 C          64.2681   87.1109   14.1910 C.2     1  UNL1        0.2546
      3 O          65.0325   86.3696   15.2475 O.2     1  UNL1       -0.2723
      4 C          64.1690   88.6016   14.0569 C.3     1  UNL1        0.1795
      5 N          63.3081   88.9036   12.8662 N.am    1  UNL1       -0.2783
      6 C          62.8752   87.5996   12.2645 C.2     1  UNL1        0.1482
      7 S          62.0022   87.4328   11.0561 S.2     1  UNL1       -0.0177
      8 C          62.9419   82.0838   12.3458 C.ar    1  UNL1        0.0587
      9 C          62.3779   82.7092   13.5870 C.ar    1  UNL1        0.0167
     10 C          62.5534   84.1784   13.8328 C.ar    1  UNL1        0.0166
     11 C          63.2930   85.0223   12.8374 C.ar    1  UNL1        0.0607
     12 C          63.8570   84.3969   11.5962 C.ar    1  UNL1        0.0279
     13 C          63.6815   82.9276   11.3504 C.ar    1  UNL1        0.0722
     14 CL         64.2456   82.3022   10.1091 Cl      1  UNL1       -0.0809
     15 C          62.4864   79.6902   13.2477 C.3     1  UNL1        0.1123
     16 N          62.7664   80.6145   12.1000 N.pl3   1  UNL1       -0.3034
     17 C          62.8710   80.0695   10.7064 C.3     1  UNL1        0.1123
     18 C          62.9441   90.2698   12.3652 C.3     1  UNL1        0.1196
     19 C          64.0202   91.2740   12.0760 C.ar    1  UNL1       -0.0022
     20 C          64.1835   91.8198   10.6884 C.ar    1  UNL1       -0.0003
     21 C          65.2596   92.8239   10.3993 C.ar    1  UNL1        0.0294
     22 C          66.1724   93.2823   11.4977 C.ar    1  UNL1        0.1401
     23 F          67.2485   94.2865   11.2086 F       1  UNL1       -0.2042
     24 C          66.0091   92.7365   12.8853 C.ar    1  UNL1        0.0294
     25 C          64.9330   91.7323   13.1745 C.ar    1  UNL1       -0.0003
@<TRIPOS>BOND
     1    15    16    1
     2    16    17    1
     3    16     8    1
     4     8     9   ar
     5     9    10   ar
     6    10    11   ar
     7    11     1    1
     8     1     2   am
     9     2     3    2
    10     2     4    1
    11     4     5    1
    12     5    18    1
    13    18    19    1
    14    19    20   ar
    15    20    21   ar
    16    21    22   ar
    17    22    23    1
    18    22    24   ar
    19    24    25   ar
    20     5     6    1
    21     6     7    2
    22    11    12   ar
    23    12    13   ar
    24    13    14    1
    25    13     8   ar
    26     6     1    1
    27    25    19   ar
