@<TRIPOS>MOLECULE
*****
 55 59 0 0 0
SMALL
GASTEIGER

@<TRIPOS>ATOM
      1 C          60.3390   88.5148    9.4685 C.3     1  UNL1        0.1041
      2 N          60.2272   89.6029    8.4421 N.am    1  UNL1       -0.3019
      3 C          59.3171   89.4304    7.2623 C.2     1  UNL1        0.2409
      4 O          58.5188   88.1698    7.1088 O.2     1  UNL1       -0.2733
      5 H          60.7511   90.4303    8.5428 H       1  UNL1        0.1495
      6 C          59.2053   90.5186    6.2359 C.3     1  UNL1        0.1580
      7 N          60.3228   90.7490    5.2623 N.am    1  UNL1       -0.2932
      8 C          60.3567   92.0050    4.4429 C.2     1  UNL1        0.2639
      9 O          59.2731   93.0306    4.5972 O.2     1  UNL1       -0.2685
     10 H          61.0340   90.0758    5.1611 H       1  UNL1        0.1502
     11 C          61.4743   92.2353    3.4693 C.ar    1  UNL1        0.1344
     12 C          62.6991   91.3705    3.5150 C.ar    1  UNL1        0.0238
     13 C          63.8166   91.6008    2.5414 C.ar    1  UNL1        0.0032
     14 C          63.7094   92.6960    1.5220 C.ar    1  UNL1        0.0177
     15 C          64.8271   92.9264    0.5484 C.ar    1  UNL1        0.0015
     16 C          64.7199   94.0215   -0.4710 C.ar    1  UNL1        0.0001
     17 C          63.4951   94.8864   -0.5167 C.ar    1  UNL1        0.0015
     18 C          62.3776   94.6560    0.4569 C.ar    1  UNL1        0.0191
     19 C          62.4847   93.5608    1.4763 C.ar    1  UNL1        0.0814
     20 N          61.3671   93.3305    2.4500 N.ar    1  UNL1       -0.2408
     21 C          57.9759   91.3764    6.1833 C.3     1  UNL1        0.1137
     22 C          56.8803   91.0579    5.2095 C.2     1  UNL1        0.2216
     23 N          56.8836   91.6830    3.8460 N.am    1  UNL1       -0.3287
     24 O          55.7814   90.1144    5.5994 O.2     1  UNL1       -0.2753
     25 H          57.6049   92.3023    3.5901 H       1  UNL1        0.1449
     26 H          56.1645   91.4740    3.2069 H       1  UNL1        0.1449
     27 C          60.8222   88.8354   10.8518 C.3     1  UNL1        0.1445
     28 O          59.8358   89.1600   11.9344 O.3     1  UNL1       -0.3813
     29 H          60.3105   89.3414   12.7606 H       1  UNL1        0.2105
     30 C          62.2917   88.8316   11.1527 C.3     1  UNL1        0.1037
     31 C          63.6792   88.3131   13.2872 C.3     1  UNL1        0.1348
     32 C          64.2427   87.3213   14.2612 C.3     1  UNL1        0.0254
     33 C          63.9823   85.8558   14.0746 C.3     1  UNL1        0.0032
     34 C          64.5458   84.8640   15.0485 C.3     1  UNL1        0.0001
     35 C          64.2853   83.3986   14.8619 C.3     1  UNL1        0.0000
     36 C          63.4613   82.9251   13.7014 C.3     1  UNL1        0.0000
     37 C          62.8977   83.9170   12.7275 C.3     1  UNL1        0.0014
     38 C          63.1582   85.3823   12.9141 C.3     1  UNL1        0.0161
     39 C          62.5947   86.3743   11.9401 C.3     1  UNL1        0.0725
     40 N          62.8552   87.8396   12.1267 N.3     1  UNL1       -0.2644
     41 N          65.2427   90.3716   13.0263 N.am    1  UNL1       -0.3064
     42 C          63.9397   89.7786   13.4738 C.2     1  UNL1        0.2369
     43 O          62.8971   90.6509   14.1079 O.2     1  UNL1       -0.2737
     44 H          65.9271   89.7991   12.6101 H       1  UNL1        0.1493
     45 C          64.9154   92.1136   11.8608 C.3     1  UNL1        0.0196
     46 C          65.5032   91.8370   13.2128 C.3     1  UNL1        0.0569
     47 C          66.0909   91.5604   14.5649 C.3     1  UNL1        0.0196
     48 C          65.7636   93.3024   13.3994 C.3     1  UNL1        0.0196
     49 C          59.9677   87.1060    9.1115 C.3     1  UNL1        0.0484
     50 C          60.9324   86.2462    8.3499 C.ar    1  UNL1       -0.0204
     51 C          60.4757   85.5098    7.1255 C.ar    1  UNL1       -0.0042
     52 C          61.4404   84.6499    6.3639 C.ar    1  UNL1       -0.0003
     53 C          62.8619   84.5265    6.8267 C.ar    1  UNL1       -0.0000
     54 C          63.3187   85.2630    8.0510 C.ar    1  UNL1       -0.0003
     55 C          62.3540   86.1228    8.8126 C.ar    1  UNL1       -0.0042
@<TRIPOS>BOND
     1    45    46    1
     2    46    47    1
     3    46    48    1
     4    46    41    1
     5    41    42   am
     6    42    43    2
     7    31    42    1
     8    31    32    1
     9    33    32    1
    10    33    34    1
    11    34    35    1
    12    35    36    1
    13    36    37    1
    14    38    37    1
    15    38    39    1
    16    39    40    1
    17    40    30    1
    18    30    27    1
    19    27    28    1
    20    27     1    1
    21     1    49    1
    22    49    50    1
    23    50    51   ar
    24    51    52   ar
    25    52    53   ar
    26    53    54   ar
    27    54    55   ar
    28     1     2    1
    29     2     3   am
    30     3     4    2
    31     3     6    1
    32     6    21    1
    33    21    22    1
    34    22    23   am
    35    22    24    2
    36     6     7    1
    37     7     8   am
    38     8     9    2
    39     8    11    1
    40    11    12   ar
    41    12    13   ar
    42    13    14   ar
    43    14    15   ar
    44    15    16   ar
    45    16    17   ar
    46    17    18   ar
    47    18    19   ar
    48    19    20   ar
    49    40    31    1
    50    55    50   ar
    51    20    11   ar
    52    38    33    1
    53    19    14   ar
    54    41    44    1
    55    28    29    1
    56     2     5    1
    57    23    25    1
    58    23    26    1
    59     7    10    1
@<TRIPOS>MOLECULE
*****
 55 59 0 0 0
SMALL
GASTEIGER

@<TRIPOS>ATOM
      1 C          60.5019   88.9171    9.6890 C.3     1  UNL1        0.1041
      2 N          60.2013   89.9300    8.6243 N.am    1  UNL1       -0.3019
      3 C          59.6383   89.4880    7.3061 C.2     1  UNL1        0.2409
      4 O          59.3760   88.0330    7.0526 O.2     1  UNL1       -0.2733
      5 H          60.3734   90.8850    8.7907 H       1  UNL1        0.1495
      6 C          59.3376   90.5009    6.2414 C.3     1  UNL1        0.1580
      7 N          60.3364   90.7651    5.1539 N.am    1  UNL1       -0.2932
      8 C          60.3306   92.0808    4.4336 C.2     1  UNL1        0.2639
      9 O          59.3260   93.1324    4.8008 O.2     1  UNL1       -0.2685
     10 H          60.9958   90.0749    4.9130 H       1  UNL1        0.1502
     11 C          61.3294   92.3449    3.3462 C.ar    1  UNL1        0.1344
     12 C          62.6564   91.6455    3.3606 C.ar    1  UNL1        0.0238
     13 C          63.6552   91.9097    2.2732 C.ar    1  UNL1        0.0032
     14 C          63.3271   92.8732    1.1713 C.ar    1  UNL1        0.0177
     15 C          64.3261   93.1373    0.0839 C.ar    1  UNL1        0.0015
     16 C          63.9980   94.1008   -1.0180 C.ar    1  UNL1        0.0001
     17 C          62.6711   94.8002   -1.0323 C.ar    1  UNL1        0.0015
     18 C          61.6722   94.5361    0.0551 C.ar    1  UNL1        0.0191
     19 C          62.0003   93.5726    1.1569 C.ar    1  UNL1        0.0814
     20 N          61.0014   93.3085    2.2444 N.ar    1  UNL1       -0.2408
     21 C          58.0381   91.2497    6.2642 C.3     1  UNL1        0.1137
     22 C          57.0075   90.9958    5.2043 C.2     1  UNL1        0.2216
     23 N          57.1499   91.6302    3.8525 N.am    1  UNL1       -0.3287
     24 O          55.8345   90.1077    5.4962 O.2     1  UNL1       -0.2753
     25 H          57.9197   92.2131    3.6609 H       1  UNL1        0.1449
     26 H          56.4735   91.4635    3.1568 H       1  UNL1        0.1449
     27 C          61.1187   89.3522   10.9852 C.3     1  UNL1        0.1445
     28 O          60.2750   90.0201   12.0303 O.3     1  UNL1       -0.3813
     29 H          60.8243   90.2353   12.8003 H       1  UNL1        0.2105
     30 C          62.5790   89.1193   11.2365 C.3     1  UNL1        0.1037
     31 C          63.8464   90.4219   13.0931 C.3     1  UNL1        0.1348
     32 C          64.7270   91.5626   13.5095 C.3     1  UNL1        0.0254
     33 C          65.2208   92.5414   12.4857 C.3     1  UNL1        0.0032
     34 C          66.1014   93.6821   12.9022 C.3     1  UNL1        0.0001
     35 C          66.5952   94.6609   11.8784 C.3     1  UNL1        0.0000
     36 C          66.2084   94.4990   10.4382 C.3     1  UNL1        0.0000
     37 C          65.3278   93.3583   10.0218 C.3     1  UNL1        0.0014
     38 C          64.8340   92.3795   11.0455 C.3     1  UNL1        0.0161
     39 C          63.9534   91.2388   10.6291 C.3     1  UNL1        0.0725
     40 N          63.4596   90.2601   11.6529 N.3     1  UNL1       -0.2644
     41 N          64.2600   88.3580   14.6160 N.am    1  UNL1       -0.3064
     42 C          63.3526   89.4431   14.1169 C.2     1  UNL1        0.2369
     43 O          61.9513   89.5494   14.6415 O.2     1  UNL1       -0.2737
     44 H          65.1796   88.2882   14.2717 H       1  UNL1        0.1493
     45 C          64.1774   86.2427   14.7515 C.3     1  UNL1        0.0196
     46 C          63.7661   87.3792   15.6397 C.3     1  UNL1        0.0569
     47 C          63.3548   88.5158   16.5280 C.3     1  UNL1        0.0196
     48 C          63.2722   86.4004   16.6635 C.3     1  UNL1        0.0196
     49 C          60.1859   87.4692    9.4574 C.3     1  UNL1        0.0484
     50 C          61.2606   86.4337    9.6074 C.ar    1  UNL1       -0.0204
     51 C          61.4911   85.7791   10.9372 C.ar    1  UNL1       -0.0042
     52 C          62.5659   84.7435   11.0872 C.ar    1  UNL1       -0.0003
     53 C          63.4102   84.3625    9.9073 C.ar    1  UNL1       -0.0000
     54 C          63.1797   85.0171    8.5775 C.ar    1  UNL1       -0.0003
     55 C          62.1050   86.0527    8.4275 C.ar    1  UNL1       -0.0042
@<TRIPOS>BOND
     1    45    46    1
     2    46    47    1
     3    46    48    1
     4    46    41    1
     5    41    42   am
     6    42    43    2
     7    31    42    1
     8    31    32    1
     9    33    32    1
    10    33    34    1
    11    34    35    1
    12    35    36    1
    13    36    37    1
    14    38    37    1
    15    38    39    1
    16    39    40    1
    17    40    30    1
    18    30    27    1
    19    27    28    1
    20    27     1    1
    21     1    49    1
    22    49    50    1
    23    50    51   ar
    24    51    52   ar
    25    52    53   ar
    26    53    54   ar
    27    54    55   ar
    28     1     2    1
    29     2     3   am
    30     3     4    2
    31     3     6    1
    32     6    21    1
    33    21    22    1
    34    22    23   am
    35    22    24    2
    36     6     7    1
    37     7     8   am
    38     8     9    2
    39     8    11    1
    40    11    12   ar
    41    12    13   ar
    42    13    14   ar
    43    14    15   ar
    44    15    16   ar
    45    16    17   ar
    46    17    18   ar
    47    18    19   ar
    48    19    20   ar
    49    40    31    1
    50    55    50   ar
    51    20    11   ar
    52    38    33    1
    53    19    14   ar
    54    41    44    1
    55    28    29    1
    56     2     5    1
    57    23    25    1
    58    23    26    1
    59     7    10    1
@<TRIPOS>MOLECULE
*****
 55 59 0 0 0
SMALL
GASTEIGER

@<TRIPOS>ATOM
      1 C          62.1157   87.0414   11.4221 C.3     1  UNL1        0.1041
      2 N          63.1013   87.9908   12.0362 N.am    1  UNL1       -0.3019
      3 C          62.6250   89.2759   12.6459 C.2     1  UNL1        0.2409
      4 O          61.1631   89.6116   12.6414 O.2     1  UNL1       -0.2733
      5 H          64.0609   87.7705   12.0392 H       1  UNL1        0.1495
      6 C          63.6107   90.2253   13.2601 C.3     1  UNL1        0.1580
      7 N          64.0709   91.4290   12.4925 N.am    1  UNL1       -0.2932
      8 C          65.4081   92.0409   12.7882 C.2     1  UNL1        0.2639
      9 O          66.2851   91.4492   13.8515 O.2     1  UNL1       -0.2685
     10 H          63.4954   91.8174   11.7945 H       1  UNL1        0.1502
     11 C          65.8684   93.2446   12.0206 C.ar    1  UNL1        0.1344
     12 C          66.0058   94.5682   12.7129 C.ar    1  UNL1        0.0238
     13 C          66.4660   95.7719   11.9453 C.ar    1  UNL1        0.0032
     14 C          66.7889   95.6521   10.4854 C.ar    1  UNL1        0.0177
     15 C          67.2492   96.8559    9.7178 C.ar    1  UNL1        0.0015
     16 C          67.5721   96.7360    8.2579 C.ar    1  UNL1        0.0001
     17 C          67.4347   95.4124    7.5656 C.ar    1  UNL1        0.0015
     18 C          66.9745   94.2087    8.3332 C.ar    1  UNL1        0.0191
     19 C          66.6516   94.3286    9.7931 C.ar    1  UNL1        0.0814
     20 N          66.1913   93.1248   10.5607 N.ar    1  UNL1       -0.2408
     21 C          64.1360   89.9710   14.6418 C.3     1  UNL1        0.1137
     22 C          63.3211   90.3639   15.8382 C.2     1  UNL1        0.2216
     23 N          62.1728   89.5051   16.2784 N.am    1  UNL1       -0.3287
     24 O          63.6543   91.6158   16.5943 O.2     1  UNL1       -0.2753
     25 H          61.9540   88.6834   15.7821 H       1  UNL1        0.1449
     26 H          61.6379   89.7630   17.0637 H       1  UNL1        0.1449
     27 C          62.5539   85.6665   11.0127 C.3     1  UNL1        0.1445
     28 O          62.1054   85.0963    9.6998 O.3     1  UNL1       -0.3813
     29 H          62.4751   84.2061    9.5908 H       1  UNL1        0.2105
     30 C          63.4405   84.8618   11.9163 C.3     1  UNL1        0.1037
     31 C          63.2505   82.7060   13.3538 C.3     1  UNL1        0.1348
     32 C          63.0732   81.2196   13.4490 C.3     1  UNL1        0.0254
     33 C          62.9086   80.4024   12.2019 C.3     1  UNL1        0.0032
     34 C          62.7313   78.9160   12.2971 C.3     1  UNL1        0.0001
     35 C          62.5667   78.0990   11.0501 C.3     1  UNL1        0.0000
     36 C          62.5793   78.7683    9.7077 C.3     1  UNL1        0.0000
     37 C          62.7566   80.2547    9.6125 C.3     1  UNL1        0.0014
     38 C          62.9212   81.0718   10.8596 C.3     1  UNL1        0.0161
     39 C          63.0986   82.5583   10.7644 C.3     1  UNL1        0.0725
     40 N          63.2632   83.3753   12.0115 N.3     1  UNL1       -0.2644
     41 N          62.8517   84.9117   14.6676 N.am    1  UNL1       -0.3064
     42 C          63.4152   83.5231   14.6009 C.2     1  UNL1        0.2369
     43 O          64.1432   82.9517   15.7813 O.2     1  UNL1       -0.2737
     44 H          62.3738   85.2867   13.8929 H       1  UNL1        0.1493
     45 C          64.2977   86.2926   15.3761 C.3     1  UNL1        0.0196
     46 C          63.0164   85.7287   15.9147 C.3     1  UNL1        0.0569
     47 C          61.7350   85.1649   16.4533 C.3     1  UNL1        0.0196
     48 C          63.1811   86.5459   17.1618 C.3     1  UNL1        0.0196
     49 C          60.6920   87.4670   11.2173 C.3     1  UNL1        0.0484
     50 C          60.2116   87.8442    9.8473 C.ar    1  UNL1       -0.0204
     51 C          59.5081   86.8310    8.9938 C.ar    1  UNL1       -0.0042
     52 C          59.0277   87.2084    7.6238 C.ar    1  UNL1       -0.0003
     53 C          59.2509   88.5988    7.1073 C.ar    1  UNL1       -0.0000
     54 C          59.9545   89.6120    7.9608 C.ar    1  UNL1       -0.0003
     55 C          60.4348   89.2347    9.3308 C.ar    1  UNL1       -0.0042
@<TRIPOS>BOND
     1    45    46    1
     2    46    47    1
     3    46    48    1
     4    46    41    1
     5    41    42   am
     6    42    43    2
     7    31    42    1
     8    31    32    1
     9    33    32    1
    10    33    34    1
    11    34    35    1
    12    35    36    1
    13    36    37    1
    14    38    37    1
    15    38    39    1
    16    39    40    1
    17    40    30    1
    18    30    27    1
    19    27    28    1
    20    27     1    1
    21     1    49    1
    22    49    50    1
    23    50    51   ar
    24    51    52   ar
    25    52    53   ar
    26    53    54   ar
    27    54    55   ar
    28     1     2    1
    29     2     3   am
    30     3     4    2
    31     3     6    1
    32     6    21    1
    33    21    22    1
    34    22    23   am
    35    22    24    2
    36     6     7    1
    37     7     8   am
    38     8     9    2
    39     8    11    1
    40    11    12   ar
    41    12    13   ar
    42    13    14   ar
    43    14    15   ar
    44    15    16   ar
    45    16    17   ar
    46    17    18   ar
    47    18    19   ar
    48    19    20   ar
    49    40    31    1
    50    55    50   ar
    51    20    11   ar
    52    38    33    1
    53    19    14   ar
    54    41    44    1
    55    28    29    1
    56     2     5    1
    57    23    25    1
    58    23    26    1
    59     7    10    1
@<TRIPOS>MOLECULE
*****
 55 59 0 0 0
SMALL
GASTEIGER

@<TRIPOS>ATOM
      1 C          62.4924   86.0639   10.5573 C.3     1  UNL1        0.1041
      2 N          62.2952   87.3544   11.2960 N.am    1  UNL1       -0.3019
      3 C          60.9150   87.9153   11.4705 C.2     1  UNL1        0.2409
      4 O          59.7320   87.1857   10.9064 O.2     1  UNL1       -0.2733
      5 H          63.0716   87.8333   11.6662 H       1  UNL1        0.1495
      6 C          60.7177   89.2058   12.2092 C.3     1  UNL1        0.1580
      7 N          61.9024   89.9451   12.7570 N.am    1  UNL1       -0.2932
      8 C          62.8578   90.6275   11.8235 C.2     1  UNL1        0.2639
      9 O          62.6286   90.5708   10.3423 O.2     1  UNL1       -0.2685
     10 H          62.0528   89.9823   13.7292 H       1  UNL1        0.1502
     11 C          64.0425   91.3668   12.3714 C.ar    1  UNL1        0.1344
     12 C          64.9419   92.1324   11.4468 C.ar    1  UNL1        0.0238
     13 C          66.1265   92.8716   11.9946 C.ar    1  UNL1        0.0032
     14 C          66.4118   92.8452   13.4669 C.ar    1  UNL1        0.0177
     15 C          67.5965   93.5845   14.0147 C.ar    1  UNL1        0.0015
     16 C          67.8818   93.5581   15.4871 C.ar    1  UNL1        0.0001
     17 C          66.9823   92.7924   16.4117 C.ar    1  UNL1        0.0015
     18 C          65.7977   92.0532   15.8639 C.ar    1  UNL1        0.0191
     19 C          65.5124   92.0796   14.3915 C.ar    1  UNL1        0.0814
     20 N          64.3277   91.3404   13.8437 N.ar    1  UNL1       -0.2408
     21 C          59.3358   89.7571   12.4001 C.3     1  UNL1        0.1137
     22 C          58.3658   89.0538   13.3024 C.2     1  UNL1        0.2216
     23 N          57.0296   88.6213   12.7756 N.am    1  UNL1       -0.3287
     24 O          58.7319   88.7829   14.7316 O.2     1  UNL1       -0.2753
     25 H          56.7893   88.7991   11.8376 H       1  UNL1        0.1449
     26 H          56.3929   88.1597   13.3679 H       1  UNL1        0.1449
     27 C          62.9021   84.8283   11.3025 C.3     1  UNL1        0.1445
     28 O          62.2064   83.5263   11.0359 O.3     1  UNL1       -0.3813
     29 H          62.5897   82.8341   11.5969 H       1  UNL1        0.2105
     30 C          64.0075   84.8945   12.3143 C.3     1  UNL1        0.1037
     31 C          63.3729   84.4116   14.7870 C.3     1  UNL1        0.1348
     32 C          63.0901   84.9036   16.1755 C.3     1  UNL1        0.0254
     33 C          63.1592   86.3709   16.4799 C.3     1  UNL1        0.0032
     34 C          62.8765   86.8629   17.8683 C.3     1  UNL1        0.0001
     35 C          62.9455   88.3301   18.1726 C.3     1  UNL1        0.0000
     36 C          63.2973   89.3052   17.0884 C.3     1  UNL1        0.0000
     37 C          63.5801   88.8131   15.7000 C.3     1  UNL1        0.0014
     38 C          63.5110   87.3460   15.3957 C.3     1  UNL1        0.0161
     39 C          63.7938   86.8538   14.0072 C.3     1  UNL1        0.0725
     40 N          63.7247   85.3867   13.7029 N.3     1  UNL1       -0.2644
     41 N          62.1371   82.3908   13.7197 N.am    1  UNL1       -0.3064
     42 C          63.3038   82.9444   14.4827 C.2     1  UNL1        0.2369
     43 O          64.4016   82.0308   14.9413 O.2     1  UNL1       -0.2737
     44 H          61.4166   82.9904   13.4187 H       1  UNL1        0.1493
     45 C          63.3300   81.0310   12.6117 C.3     1  UNL1        0.0196
     46 C          62.0681   80.9236   13.4154 C.3     1  UNL1        0.0569
     47 C          60.8061   80.8163   14.2190 C.3     1  UNL1        0.0196
     48 C          61.9991   79.4564   13.1110 C.3     1  UNL1        0.0196
     49 C          62.2800   86.0090    9.0734 C.3     1  UNL1        0.0484
     50 C          61.1407   86.7600    8.4506 C.ar    1  UNL1       -0.0204
     51 C          59.9994   86.0110    7.8290 C.ar    1  UNL1       -0.0042
     52 C          58.8601   86.7621    7.2061 C.ar    1  UNL1       -0.0003
     53 C          58.8621   88.2621    7.2049 C.ar    1  UNL1       -0.0000
     54 C          60.0035   89.0111    7.8265 C.ar    1  UNL1       -0.0003
     55 C          61.1428   88.2601    8.4493 C.ar    1  UNL1       -0.0042
@<TRIPOS>BOND
     1    45    46    1
     2    46    47    1
     3    46    48    1
     4    46    41    1
     5    41    42   am
     6    42    43    2
     7    31    42    1
     8    31    32    1
     9    33    32    1
    10    33    34    1
    11    34    35    1
    12    35    36    1
    13    36    37    1
    14    38    37    1
    15    38    39    1
    16    39    40    1
    17    40    30    1
    18    30    27    1
    19    27    28    1
    20    27     1    1
    21     1    49    1
    22    49    50    1
    23    50    51   ar
    24    51    52   ar
    25    52    53   ar
    26    53    54   ar
    27    54    55   ar
    28     1     2    1
    29     2     3   am
    30     3     4    2
    31     3     6    1
    32     6    21    1
    33    21    22    1
    34    22    23   am
    35    22    24    2
    36     6     7    1
    37     7     8   am
    38     8     9    2
    39     8    11    1
    40    11    12   ar
    41    12    13   ar
    42    13    14   ar
    43    14    15   ar
    44    15    16   ar
    45    16    17   ar
    46    17    18   ar
    47    18    19   ar
    48    19    20   ar
    49    40    31    1
    50    55    50   ar
    51    20    11   ar
    52    38    33    1
    53    19    14   ar
    54    41    44    1
    55    28    29    1
    56     2     5    1
    57    23    25    1
    58    23    26    1
    59     7    10    1
@<TRIPOS>MOLECULE
*****
 55 59 0 0 0
SMALL
GASTEIGER

@<TRIPOS>ATOM
      1 C          63.1513   89.2147   11.8077 C.3     1  UNL1        0.1041
      2 N          63.1086   87.9719   12.6465 N.am    1  UNL1       -0.3019
      3 C          63.9308   87.8832   13.8980 C.2     1  UNL1        0.2409
      4 O          64.7956   89.0371   14.3106 O.2     1  UNL1       -0.2733
      5 H          62.5409   87.2145   12.3757 H       1  UNL1        0.1495
      6 C          63.8881   86.6403   14.7369 C.3     1  UNL1        0.1580
      7 N          63.8276   85.2935   14.0794 N.am    1  UNL1       -0.2932
      8 C          62.7034   84.3530   14.3984 C.2     1  UNL1        0.2639
      9 O          61.6397   84.7594   15.3748 O.2     1  UNL1       -0.2685
     10 H          64.5257   85.0267   13.4386 H       1  UNL1        0.1502
     11 C          62.6429   83.0061   13.7410 C.ar    1  UNL1        0.1344
     12 C          62.2407   81.8002   14.5373 C.ar    1  UNL1        0.0238
     13 C          62.1802   80.4533   13.8799 C.ar    1  UNL1        0.0032
     14 C          62.5219   80.3123   12.4262 C.ar    1  UNL1        0.0177
     15 C          62.4613   78.9653   11.7687 C.ar    1  UNL1        0.0015
     16 C          62.8030   78.8243   10.3150 C.ar    1  UNL1        0.0001
     17 C          63.2051   80.0302    9.5186 C.ar    1  UNL1        0.0015
     18 C          63.2656   81.3771   10.1761 C.ar    1  UNL1        0.0191
     19 C          62.9240   81.5181   11.6298 C.ar    1  UNL1        0.0814
     20 N          62.9845   82.8651   12.2872 N.ar    1  UNL1       -0.2408
     21 C          63.9059   86.7444   16.2331 C.3     1  UNL1        0.1137
     22 C          62.8825   87.5839   16.9388 C.2     1  UNL1        0.2216
     23 N          63.1181   89.0533   17.1266 N.am    1  UNL1       -0.3287
     24 O          61.6235   86.9539   17.4565 O.2     1  UNL1       -0.2753
     25 H          63.9444   89.4668   16.7868 H       1  UNL1        0.1449
     26 H          62.4464   89.6043   17.5898 H       1  UNL1        0.1449
     27 C          63.3036   90.5560   12.4616 C.3     1  UNL1        0.1445
     28 O          62.5460   90.8682   13.7181 O.3     1  UNL1       -0.3813
     29 H          62.7566   91.7699   14.0070 H       1  UNL1        0.2105
     30 C          64.2135   91.5851   11.8591 C.3     1  UNL1        0.1037
     31 C          66.0138   93.4249   12.2111 C.3     1  UNL1        0.1348
     32 C          67.1199   94.0202   13.0310 C.3     1  UNL1        0.0254
     33 C          67.5318   93.3708   14.3189 C.3     1  UNL1        0.0032
     34 C          68.6379   93.9660   15.1388 C.3     1  UNL1        0.0001
     35 C          69.0498   93.3166   16.4266 C.3     1  UNL1        0.0000
     36 C          68.3556   92.0720   16.8946 C.3     1  UNL1        0.0000
     37 C          67.2495   91.4768   16.0747 C.3     1  UNL1        0.0014
     38 C          66.8376   92.1262   14.7869 C.3     1  UNL1        0.0161
     39 C          65.7315   91.5309   13.9669 C.3     1  UNL1        0.0725
     40 N          65.3196   92.1803   12.6790 N.3     1  UNL1       -0.2644
     41 N          66.1307   95.4315   10.5648 N.am    1  UNL1       -0.3064
     42 C          65.6019   94.0743   10.9231 C.2     1  UNL1        0.2369
     43 O          64.6612   93.3665    9.9936 O.2     1  UNL1       -0.2737
     44 H          66.7481   95.8961   11.1749 H       1  UNL1        0.1493
     45 C          66.8345   95.3756    8.5645 C.3     1  UNL1        0.0196
     46 C          65.7187   96.0808    9.2769 C.3     1  UNL1        0.0569
     47 C          64.6030   96.7861    9.9894 C.3     1  UNL1        0.0196
     48 C          65.3068   96.7301    7.9890 C.3     1  UNL1        0.0196
     49 C          63.0416   89.1161   10.3150 C.3     1  UNL1        0.0484
     50 C          61.9906   88.2429    9.6962 C.ar    1  UNL1       -0.0204
     51 C          62.2968   86.8084    9.3825 C.ar    1  UNL1       -0.0042
     52 C          61.2458   85.9351    8.7637 C.ar    1  UNL1       -0.0003
     53 C          59.8886   86.4964    8.4586 C.ar    1  UNL1       -0.0000
     54 C          59.5825   87.9309    8.7723 C.ar    1  UNL1       -0.0003
     55 C          60.6334   88.8042    9.3911 C.ar    1  UNL1       -0.0042
@<TRIPOS>BOND
     1    45    46    1
     2    46    47    1
     3    46    48    1
     4    46    41    1
     5    41    42   am
     6    42    43    2
     7    31    42    1
     8    31    32    1
     9    33    32    1
    10    33    34    1
    11    34    35    1
    12    35    36    1
    13    36    37    1
    14    38    37    1
    15    38    39    1
    16    39    40    1
    17    40    30    1
    18    30    27    1
    19    27    28    1
    20    27     1    1
    21     1    49    1
    22    49    50    1
    23    50    51   ar
    24    51    52   ar
    25    52    53   ar
    26    53    54   ar
    27    54    55   ar
    28     1     2    1
    29     2     3   am
    30     3     4    2
    31     3     6    1
    32     6    21    1
    33    21    22    1
    34    22    23   am
    35    22    24    2
    36     6     7    1
    37     7     8   am
    38     8     9    2
    39     8    11    1
    40    11    12   ar
    41    12    13   ar
    42    13    14   ar
    43    14    15   ar
    44    15    16   ar
    45    16    17   ar
    46    17    18   ar
    47    18    19   ar
    48    19    20   ar
    49    40    31    1
    50    55    50   ar
    51    20    11   ar
    52    38    33    1
    53    19    14   ar
    54    41    44    1
    55    28    29    1
    56     2     5    1
    57    23    25    1
    58    23    26    1
    59     7    10    1
@<TRIPOS>MOLECULE
*****
 55 59 0 0 0
SMALL
GASTEIGER

@<TRIPOS>ATOM
      1 C          61.9367   88.0628   10.7272 C.3     1  UNL1        0.1041
      2 N          61.4096   88.0097    9.3239 N.am    1  UNL1       -0.3019
      3 C          60.4909   89.0861    8.8266 C.2     1  UNL1        0.2409
      4 O          60.0993   90.2156    9.7325 O.2     1  UNL1       -0.2733
      5 H          61.6666   87.2683    8.7293 H       1  UNL1        0.1495
      6 C          59.9638   89.0329    7.4232 C.3     1  UNL1        0.1580
      7 N          60.5506   89.9222    6.3674 N.am    1  UNL1       -0.2932
      8 C          59.6487   90.7152    5.4685 C.2     1  UNL1        0.2639
      9 O          58.1601   90.6188    5.6254 O.2     1  UNL1       -0.2685
     10 H          61.5276   89.9855    6.2644 H       1  UNL1        0.1502
     11 C          60.2355   91.6045    4.4128 C.ar    1  UNL1        0.1344
     12 C          59.4000   92.6853    3.7932 C.ar    1  UNL1        0.0238
     13 C          59.9868   93.5746    2.7374 C.ar    1  UNL1        0.0032
     14 C          61.4091   93.3832    2.3012 C.ar    1  UNL1        0.0177
     15 C          61.9959   94.2726    1.2453 C.ar    1  UNL1        0.0015
     16 C          63.4183   94.0812    0.8090 C.ar    1  UNL1        0.0001
     17 C          64.2538   93.0004    1.4286 C.ar    1  UNL1        0.0015
     18 C          63.6670   92.1110    2.4844 C.ar    1  UNL1        0.0191
     19 C          62.2447   92.3025    2.9206 C.ar    1  UNL1        0.0814
     20 N          61.6579   91.4131    3.9765 N.ar    1  UNL1       -0.2408
     21 C          58.8498   88.0903    7.0757 C.3     1  UNL1        0.1137
     22 C          58.8450   86.6973    7.6319 C.2     1  UNL1        0.2216
     23 N          59.7803   85.6646    7.0762 N.am    1  UNL1       -0.3287
     24 O          57.9050   86.3370    8.7438 O.2     1  UNL1       -0.2753
     25 H          60.3973   85.9012    6.3463 H       1  UNL1        0.1449
     26 H          59.7772   84.7503    7.4412 H       1  UNL1        0.1449
     27 C          62.4994   89.3433   11.2690 C.3     1  UNL1        0.1445
     28 O          63.1455   90.3301   10.3421 O.3     1  UNL1       -0.3813
     29 H          63.4535   91.0970   10.8500 H       1  UNL1        0.2105
     30 C          62.4161   89.6372   12.7375 C.3     1  UNL1        0.1037
     31 C          63.8732   90.1615   14.8237 C.3     1  UNL1        0.1348
     32 C          64.9460   90.9721   15.4884 C.3     1  UNL1        0.0254
     33 C          65.6347   92.0691   14.7317 C.3     1  UNL1        0.0032
     34 C          66.7075   92.8797   15.3964 C.3     1  UNL1        0.0001
     35 C          67.3961   93.9766   14.6398 C.3     1  UNL1        0.0000
     36 C          67.0119   94.2629   13.2183 C.3     1  UNL1        0.0000
     37 C          65.9391   93.4523   12.5536 C.3     1  UNL1        0.0014
     38 C          65.2505   92.3554   13.3103 C.3     1  UNL1        0.0161
     39 C          64.1776   91.5447   12.6456 C.3     1  UNL1        0.0725
     40 N          63.4890   90.4478   13.4023 N.3     1  UNL1       -0.2644
     41 N          63.8803   87.7541   15.8006 N.am    1  UNL1       -0.3064
     42 C          63.1845   89.0646   15.5803 C.2     1  UNL1        0.2369
     43 O          61.8001   89.2781   16.1167 O.2     1  UNL1       -0.2737
     44 H          64.7890   87.6140   15.4486 H       1  UNL1        0.1493
     45 C          63.5179   85.6927   15.4559 C.3     1  UNL1        0.0196
     46 C          63.1917   86.6573   16.5573 C.3     1  UNL1        0.0569
     47 C          62.8654   87.6219   17.6586 C.3     1  UNL1        0.0196
     48 C          62.5030   85.5603   17.3139 C.3     1  UNL1        0.0196
     49 C          61.9011   86.8354   11.5887 C.3     1  UNL1        0.0484
     50 C          62.5876   85.5810   11.1358 C.ar    1  UNL1       -0.0204
     51 C          62.8053   85.3315    9.6728 C.ar    1  UNL1       -0.0042
     52 C          63.4918   84.0771    9.2198 C.ar    1  UNL1       -0.0003
     53 C          63.9606   83.0721   10.2299 C.ar    1  UNL1       -0.0000
     54 C          63.7430   83.3216   11.6929 C.ar    1  UNL1       -0.0003
     55 C          63.0565   84.5760   12.1459 C.ar    1  UNL1       -0.0042
@<TRIPOS>BOND
     1    45    46    1
     2    46    47    1
     3    46    48    1
     4    46    41    1
     5    41    42   am
     6    42    43    2
     7    31    42    1
     8    31    32    1
     9    33    32    1
    10    33    34    1
    11    34    35    1
    12    35    36    1
    13    36    37    1
    14    38    37    1
    15    38    39    1
    16    39    40    1
    17    40    30    1
    18    30    27    1
    19    27    28    1
    20    27     1    1
    21     1    49    1
    22    49    50    1
    23    50    51   ar
    24    51    52   ar
    25    52    53   ar
    26    53    54   ar
    27    54    55   ar
    28     1     2    1
    29     2     3   am
    30     3     4    2
    31     3     6    1
    32     6    21    1
    33    21    22    1
    34    22    23   am
    35    22    24    2
    36     6     7    1
    37     7     8   am
    38     8     9    2
    39     8    11    1
    40    11    12   ar
    41    12    13   ar
    42    13    14   ar
    43    14    15   ar
    44    15    16   ar
    45    16    17   ar
    46    17    18   ar
    47    18    19   ar
    48    19    20   ar
    49    40    31    1
    50    55    50   ar
    51    20    11   ar
    52    38    33    1
    53    19    14   ar
    54    41    44    1
    55    28    29    1
    56     2     5    1
    57    23    25    1
    58    23    26    1
    59     7    10    1
@<TRIPOS>MOLECULE
*****
 55 59 0 0 0
SMALL
GASTEIGER

@<TRIPOS>ATOM
      1 C          62.1775   88.9221   10.9203 C.3     1  UNL1        0.1041
      2 N          61.6929   88.6993    9.5184 N.am    1  UNL1       -0.3019
      3 C          60.5326   89.4904    8.9912 C.2     1  UNL1        0.2409
      4 O          59.8569   90.5043    9.8660 O.2     1  UNL1       -0.2733
      5 H          62.1364   88.0338    8.9442 H       1  UNL1        0.1495
      6 C          60.0481   89.2675    7.5892 C.3     1  UNL1        0.1580
      7 N          60.5909   90.1013    6.4666 N.am    1  UNL1       -0.2932
      8 C          59.6524   90.7548    5.4961 C.2     1  UNL1        0.2639
      9 O          58.1711   90.5747    5.6480 O.2     1  UNL1       -0.2685
     10 H          61.5632   90.2195    6.3669 H       1  UNL1        0.1502
     11 C          60.1952   91.5886    4.3735 C.ar    1  UNL1        0.1344
     12 C          59.2897   92.5236    3.6279 C.ar    1  UNL1        0.0238
     13 C          59.8325   93.3573    2.5053 C.ar    1  UNL1        0.0032
     14 C          61.2808   93.2562    2.1284 C.ar    1  UNL1        0.0177
     15 C          61.8236   94.0900    1.0058 C.ar    1  UNL1        0.0015
     16 C          63.2719   93.9889    0.6288 C.ar    1  UNL1        0.0001
     17 C          64.1775   93.0539    1.3745 C.ar    1  UNL1        0.0015
     18 C          63.6347   92.2201    2.4970 C.ar    1  UNL1        0.0191
     19 C          62.1863   92.3213    2.8740 C.ar    1  UNL1        0.0814
     20 N          61.6435   91.4875    3.9966 N.ar    1  UNL1       -0.2408
     21 C          59.0208   88.2109    7.3098 C.3     1  UNL1        0.1137
     22 C          59.0942   86.8886    8.0141 C.2     1  UNL1        0.2216
     23 N          59.3102   85.6303    7.2266 N.am    1  UNL1       -0.3287
     24 O          58.9516   86.8245    9.5059 O.2     1  UNL1       -0.2753
     25 H          59.4038   85.6724    6.2474 H       1  UNL1        0.1449
     26 H          59.3583   84.7624    7.6888 H       1  UNL1        0.1449
     27 C          62.7811   90.2404   11.3046 C.3     1  UNL1        0.1445
     28 O          61.9046   91.3480   11.8096 O.3     1  UNL1       -0.3813
     29 H          62.4492   92.1249   12.0112 H       1  UNL1        0.2105
     30 C          64.2613   90.4511   11.1838 C.3     1  UNL1        0.1037
     31 C          65.2857   92.2138   12.7943 C.3     1  UNL1        0.1348
     32 C          65.8709   93.5750   13.0278 C.3     1  UNL1        0.0254
     33 C          66.0170   94.5349   11.8844 C.3     1  UNL1        0.0032
     34 C          66.6022   95.8961   12.1179 C.3     1  UNL1        0.0001
     35 C          66.7483   96.8559   10.9745 C.3     1  UNL1        0.0000
     36 C          66.3092   96.4545    9.5976 C.3     1  UNL1        0.0000
     37 C          65.7239   95.0933    9.3640 C.3     1  UNL1        0.0014
     38 C          65.5779   94.1335   10.5074 C.3     1  UNL1        0.0161
     39 C          64.9926   92.7722   10.2739 C.3     1  UNL1        0.0725
     40 N          64.8466   91.8124   11.4173 N.3     1  UNL1       -0.2644
     41 N          63.7766   90.7895   14.3576 N.am    1  UNL1       -0.3064
     42 C          65.1396   91.2540   13.9377 C.2     1  UNL1        0.2369
     43 O          66.3566   90.7586   14.6612 O.2     1  UNL1       -0.2737
     44 H          62.9778   91.1147   13.8827 H       1  UNL1        0.1493
     45 C          63.9552   88.6880   14.5840 C.3     1  UNL1        0.0196
     46 C          63.6305   89.8297   15.5010 C.3     1  UNL1        0.0569
     47 C          63.3059   90.9715   16.4180 C.3     1  UNL1        0.0196
     48 C          63.4845   88.8698   16.6444 C.3     1  UNL1        0.0196
     49 C          62.0583   87.8266   11.9381 C.3     1  UNL1        0.0484
     50 C          62.5365   86.4432   11.6103 C.ar    1  UNL1       -0.0204
     51 C          63.1248   85.5786   12.6857 C.ar    1  UNL1       -0.0042
     52 C          63.6030   84.1951   12.3579 C.ar    1  UNL1       -0.0003
     53 C          63.4928   83.6763   10.9548 C.ar    1  UNL1       -0.0000
     54 C          62.9044   84.5409    9.8795 C.ar    1  UNL1       -0.0003
     55 C          62.4263   85.9243   10.2072 C.ar    1  UNL1       -0.0042
@<TRIPOS>BOND
     1    45    46    1
     2    46    47    1
     3    46    48    1
     4    46    41    1
     5    41    42   am
     6    42    43    2
     7    31    42    1
     8    31    32    1
     9    33    32    1
    10    33    34    1
    11    34    35    1
    12    35    36    1
    13    36    37    1
    14    38    37    1
    15    38    39    1
    16    39    40    1
    17    40    30    1
    18    30    27    1
    19    27    28    1
    20    27     1    1
    21     1    49    1
    22    49    50    1
    23    50    51   ar
    24    51    52   ar
    25    52    53   ar
    26    53    54   ar
    27    54    55   ar
    28     1     2    1
    29     2     3   am
    30     3     4    2
    31     3     6    1
    32     6    21    1
    33    21    22    1
    34    22    23   am
    35    22    24    2
    36     6     7    1
    37     7     8   am
    38     8     9    2
    39     8    11    1
    40    11    12   ar
    41    12    13   ar
    42    13    14   ar
    43    14    15   ar
    44    15    16   ar
    45    16    17   ar
    46    17    18   ar
    47    18    19   ar
    48    19    20   ar
    49    40    31    1
    50    55    50   ar
    51    20    11   ar
    52    38    33    1
    53    19    14   ar
    54    41    44    1
    55    28    29    1
    56     2     5    1
    57    23    25    1
    58    23    26    1
    59     7    10    1
@<TRIPOS>MOLECULE
*****
 55 59 0 0 0
SMALL
GASTEIGER

@<TRIPOS>ATOM
      1 C          61.7111   87.7752   11.0488 C.3     1  UNL1        0.1041
      2 N          61.6223   87.3876    9.6025 N.am    1  UNL1       -0.3019
      3 C          60.2843   87.1260    8.9770 C.2     1  UNL1        0.2409
      4 O          59.0351   87.2520    9.7977 O.2     1  UNL1       -0.2733
      5 H          62.4422   87.3049    9.0638 H       1  UNL1        0.1495
      6 C          60.1955   86.7384    7.5306 C.3     1  UNL1        0.1580
      7 N          60.1751   87.7987    6.4698 N.am    1  UNL1       -0.2932
      8 C          59.7851   89.2039    6.8214 C.2     1  UNL1        0.2639
      9 O          59.4156   89.5486    8.2337 O.2     1  UNL1       -0.2685
     10 H          60.4176   87.5725    5.5429 H       1  UNL1        0.1502
     11 C          59.7646   90.2642    5.7607 C.ar    1  UNL1        0.1344
     12 C          58.4937   91.0036    5.4637 C.ar    1  UNL1        0.0238
     13 C          58.4733   92.0640    4.4030 C.ar    1  UNL1        0.0032
     14 C          59.7237   92.3850    3.6391 C.ar    1  UNL1        0.0177
     15 C          59.7032   93.4454    2.5784 C.ar    1  UNL1        0.0015
     16 C          60.9536   93.7664    1.8145 C.ar    1  UNL1        0.0001
     17 C          62.2245   93.0270    2.1115 C.ar    1  UNL1        0.0015
     18 C          62.2449   91.9666    3.1722 C.ar    1  UNL1        0.0191
     19 C          60.9945   91.6456    3.9360 C.ar    1  UNL1        0.0814
     20 N          61.0151   90.5852    4.9968 N.ar    1  UNL1       -0.2408
     21 C          60.1272   85.2904    7.1450 C.3     1  UNL1        0.1137
     22 C          61.2767   84.6513    6.4237 C.2     1  UNL1        0.2216
     23 N          62.6826   84.9010    6.8832 N.am    1  UNL1       -0.3287
     24 O          61.0202   83.7625    5.2429 O.2     1  UNL1       -0.2753
     25 H          62.8509   85.4844    7.6581 H       1  UNL1        0.1449
     26 H          63.4370   84.4815    6.4097 H       1  UNL1        0.1449
     27 C          61.1921   89.1078   11.5013 C.3     1  UNL1        0.1445
     28 O          60.2194   89.8638   10.6456 O.3     1  UNL1       -0.3813
     29 H          59.9867   90.6989   11.0809 H       1  UNL1        0.2105
     30 C          61.6459   89.6845   12.8096 C.3     1  UNL1        0.1037
     31 C          63.8413   90.0914   14.1382 C.3     1  UNL1        0.1348
     32 C          65.1942   90.7297   14.2474 C.3     1  UNL1        0.0254
     33 C          65.7049   91.5997   13.1372 C.3     1  UNL1        0.0032
     34 C          67.0579   92.2380   13.2465 C.3     1  UNL1        0.0001
     35 C          67.5685   93.1080   12.1363 C.3     1  UNL1        0.0000
     36 C          66.7262   93.3395   10.9170 C.3     1  UNL1        0.0000
     37 C          65.3732   92.7012   10.8077 C.3     1  UNL1        0.0014
     38 C          64.8626   91.8313   11.9179 C.3     1  UNL1        0.0161
     39 C          63.5096   91.1928   11.8087 C.3     1  UNL1        0.0725
     40 N          62.9990   90.3229   12.9188 N.3     1  UNL1       -0.2644
     41 N          63.8788   87.8369   15.4290 N.am    1  UNL1       -0.3064
     42 C          63.3306   89.2214   15.2483 C.2     1  UNL1        0.2369
     43 O          62.2717   89.7359   16.1778 O.2     1  UNL1       -0.2737
     44 H          64.5738   87.4992   14.8189 H       1  UNL1        0.1493
     45 C          63.6766   85.7460   15.7243 C.3     1  UNL1        0.0196
     46 C          63.3681   86.9670   16.5391 C.3     1  UNL1        0.0569
     47 C          63.0596   88.1880   17.3539 C.3     1  UNL1        0.0196
     48 C          62.8574   86.0970   17.6493 C.3     1  UNL1        0.0196
     49 C          62.3188   86.8302   12.0426 C.3     1  UNL1        0.0484
     50 C          62.6680   85.4309   11.6305 C.ar    1  UNL1       -0.0204
     51 C          62.5455   84.3063   12.6155 C.ar    1  UNL1       -0.0042
     52 C          62.8947   82.9069   12.2033 C.ar    1  UNL1       -0.0003
     53 C          63.3662   82.6321   10.8062 C.ar    1  UNL1       -0.0000
     54 C          63.4887   83.7567    9.8211 C.ar    1  UNL1       -0.0003
     55 C          63.1396   85.1561   10.2333 C.ar    1  UNL1       -0.0042
@<TRIPOS>BOND
     1    45    46    1
     2    46    47    1
     3    46    48    1
     4    46    41    1
     5    41    42   am
     6    42    43    2
     7    31    42    1
     8    31    32    1
     9    33    32    1
    10    33    34    1
    11    34    35    1
    12    35    36    1
    13    36    37    1
    14    38    37    1
    15    38    39    1
    16    39    40    1
    17    40    30    1
    18    30    27    1
    19    27    28    1
    20    27     1    1
    21     1    49    1
    22    49    50    1
    23    50    51   ar
    24    51    52   ar
    25    52    53   ar
    26    53    54   ar
    27    54    55   ar
    28     1     2    1
    29     2     3   am
    30     3     4    2
    31     3     6    1
    32     6    21    1
    33    21    22    1
    34    22    23   am
    35    22    24    2
    36     6     7    1
    37     7     8   am
    38     8     9    2
    39     8    11    1
    40    11    12   ar
    41    12    13   ar
    42    13    14   ar
    43    14    15   ar
    44    15    16   ar
    45    16    17   ar
    46    17    18   ar
    47    18    19   ar
    48    19    20   ar
    49    40    31    1
    50    55    50   ar
    51    20    11   ar
    52    38    33    1
    53    19    14   ar
    54    41    44    1
    55    28    29    1
    56     2     5    1
    57    23    25    1
    58    23    26    1
    59     7    10    1
@<TRIPOS>MOLECULE
*****
 55 59 0 0 0
SMALL
GASTEIGER

@<TRIPOS>ATOM
      1 C          62.4052   86.5802   11.4621 C.3     1  UNL1        0.1041
      2 N          61.2214   87.4327   11.1134 N.am    1  UNL1       -0.3019
      3 C          61.4155   88.7105   10.3520 C.2     1  UNL1        0.2409
      4 O          62.7935   89.1357    9.9394 O.2     1  UNL1       -0.2733
      5 H          60.3169   87.1537   11.3842 H       1  UNL1        0.1495
      6 C          60.2316   89.5631   10.0034 C.3     1  UNL1        0.1580
      7 N          60.2172   90.3373    8.7187 N.am    1  UNL1       -0.2932
      8 C          59.6082   89.7353    7.4871 C.2     1  UNL1        0.2639
      9 O          59.0136   88.3593    7.5401 O.2     1  UNL1       -0.2685
     10 H          60.6075   91.2404    8.6838 H       1  UNL1        0.1502
     11 C          59.5938   90.5095    6.2024 C.ar    1  UNL1        0.1344
     12 C          58.3002   91.0445    5.6636 C.ar    1  UNL1        0.0238
     13 C          58.2858   91.8187    4.3789 C.ar    1  UNL1        0.0032
     14 C          59.5650   92.0579    3.6330 C.ar    1  UNL1        0.0177
     15 C          59.5505   92.8321    2.3483 C.ar    1  UNL1        0.0015
     16 C          60.8298   93.0713    1.6024 C.ar    1  UNL1        0.0001
     17 C          62.1234   92.5362    2.1412 C.ar    1  UNL1        0.0015
     18 C          62.1378   91.7621    3.4258 C.ar    1  UNL1        0.0191
     19 C          60.8586   91.5229    4.1718 C.ar    1  UNL1        0.0814
     20 N          60.8731   90.7487    5.4565 N.ar    1  UNL1       -0.2408
     21 C          59.0621   89.6414   10.9394 C.3     1  UNL1        0.1137
     22 C          59.2413   89.3152   12.3925 C.2     1  UNL1        0.2216
     23 N          58.1494   88.6128   13.1436 N.am    1  UNL1       -0.3287
     24 O          60.5125   89.6914   13.0943 O.2     1  UNL1       -0.2753
     25 H          57.3151   88.3659   12.6830 H       1  UNL1        0.1449
     26 H          58.2670   88.3987   14.0974 H       1  UNL1        0.1449
     27 C          63.3086   86.9771   12.5918 C.3     1  UNL1        0.1445
     28 O          63.4678   88.4246   12.9518 O.3     1  UNL1       -0.3813
     29 H          64.0820   88.5066   13.6980 H       1  UNL1        0.2105
     30 C          64.0527   85.9267   13.3617 C.3     1  UNL1        0.1037
     31 C          62.5673   84.3314   14.7754 C.3     1  UNL1        0.1348
     32 C          61.9502   82.9813   14.9909 C.3     1  UNL1        0.0254
     33 C          62.2016   81.8762   14.0082 C.3     1  UNL1        0.0032
     34 C          61.5845   80.5262   14.2237 C.3     1  UNL1        0.0001
     35 C          61.8358   79.4212   13.2409 C.3     1  UNL1        0.0000
     36 C          62.7042   79.6663   12.0427 C.3     1  UNL1        0.0000
     37 C          63.3212   81.0164   11.8271 C.3     1  UNL1        0.0014
     38 C          63.0699   82.1214   12.8099 C.3     1  UNL1        0.0161
     39 C          63.6870   83.4715   12.5944 C.3     1  UNL1        0.0725
     40 N          63.4357   84.5765   13.5772 N.3     1  UNL1       -0.2644
     41 N          63.4252   86.3746   16.1316 N.am    1  UNL1       -0.3064
     42 C          62.3160   85.4364   15.7582 C.2     1  UNL1        0.2369
     43 O          60.9555   85.6032   16.3675 O.2     1  UNL1       -0.2737
     44 H          64.3181   86.2652   15.7317 H       1  UNL1        0.1493
     45 C          62.8875   86.4653   18.1816 C.3     1  UNL1        0.0196
     46 C          63.1738   87.4796   17.1144 C.3     1  UNL1        0.0569
     47 C          63.4602   88.4939   16.0471 C.3     1  UNL1        0.0196
     48 C          62.9225   88.5846   18.0972 C.3     1  UNL1        0.0196
     49 C          62.6857   85.3307   10.6810 C.3     1  UNL1        0.0484
     50 C          62.2603   85.2318    9.2460 C.ar    1  UNL1       -0.0204
     51 C          63.2085   84.6887    8.2184 C.ar    1  UNL1       -0.0042
     52 C          62.7831   84.5899    6.7834 C.ar    1  UNL1       -0.0003
     53 C          61.4096   85.0341    6.3760 C.ar    1  UNL1       -0.0000
     54 C          60.4614   85.5773    7.4036 C.ar    1  UNL1       -0.0003
     55 C          60.8868   85.6761    8.8386 C.ar    1  UNL1       -0.0042
@<TRIPOS>BOND
     1    45    46    1
     2    46    47    1
     3    46    48    1
     4    46    41    1
     5    41    42   am
     6    42    43    2
     7    31    42    1
     8    31    32    1
     9    33    32    1
    10    33    34    1
    11    34    35    1
    12    35    36    1
    13    36    37    1
    14    38    37    1
    15    38    39    1
    16    39    40    1
    17    40    30    1
    18    30    27    1
    19    27    28    1
    20    27     1    1
    21     1    49    1
    22    49    50    1
    23    50    51   ar
    24    51    52   ar
    25    52    53   ar
    26    53    54   ar
    27    54    55   ar
    28     1     2    1
    29     2     3   am
    30     3     4    2
    31     3     6    1
    32     6    21    1
    33    21    22    1
    34    22    23   am
    35    22    24    2
    36     6     7    1
    37     7     8   am
    38     8     9    2
    39     8    11    1
    40    11    12   ar
    41    12    13   ar
    42    13    14   ar
    43    14    15   ar
    44    15    16   ar
    45    16    17   ar
    46    17    18   ar
    47    18    19   ar
    48    19    20   ar
    49    40    31    1
    50    55    50   ar
    51    20    11   ar
    52    38    33    1
    53    19    14   ar
    54    41    44    1
    55    28    29    1
    56     2     5    1
    57    23    25    1
    58    23    26    1
    59     7    10    1
