@<TRIPOS>MOLECULE
*****
 23 25 0 0 0
SMALL
GASTEIGER

@<TRIPOS>ATOM
      1 C          64.3990   81.8502   13.1536 C.3     1  UNL1        0.1363
      2 N          63.6673   83.0379   12.6021 N.ar    1  UNL1       -0.2669
      3 C          62.8289   83.8895   13.5086 C.ar    1  UNL1        0.2002
      4 N          62.0972   85.0772   12.9572 N.ar    1  UNL1       -0.2150
      5 C          62.2038   85.4132   11.4992 C.ar    1  UNL1        0.0895
      6 C          61.4722   86.6008   10.9477 C.ar    1  UNL1        0.0307
      7 C          61.5788   86.9367    9.4898 C.ar    1  UNL1        0.0592
      8 CL         60.8471   88.1244    8.9382 Cl      1  UNL1       -0.0822
      9 C          62.4171   86.0850    8.5832 C.ar    1  UNL1        0.0116
     10 C          63.1488   84.8974    9.1347 C.ar    1  UNL1        0.0071
     11 C          63.0422   84.5615   10.5926 C.ar    1  UNL1        0.0740
     12 C          63.7739   83.3738   11.1441 C.ar    1  UNL1        0.2643
     13 O          64.6123   82.5221   10.2376 O.2     1  UNL1       -0.2668
     14 N          62.7223   83.5536   14.9667 N.pl3   1  UNL1       -0.3039
     15 H          62.7710   82.6152   15.2604 H       1  UNL1        0.1496
     16 C          62.5414   84.6473   15.9771 C.3     1  UNL1        0.0942
     17 C          63.7050   85.5117   16.3630 C.3     1  UNL1        0.0476
     18 C          63.7141   86.9656   15.9940 C.ar    1  UNL1       -0.0205
     19 C          63.0915   87.9761   16.9112 C.ar    1  UNL1       -0.0042
     20 C          63.1006   89.4300   16.5423 C.ar    1  UNL1       -0.0003
     21 C          63.7323   89.8734   15.2561 C.ar    1  UNL1       -0.0000
     22 C          64.3548   88.8629   14.3388 C.ar    1  UNL1       -0.0003
     23 C          64.3457   87.4090   14.7078 C.ar    1  UNL1       -0.0042
@<TRIPOS>BOND
     1     1     2    1
     2     2     3   ar
     3     3    14    1
     4    14    16    1
     5    16    17    1
     6    17    18    1
     7    18    19   ar
     8    19    20   ar
     9    20    21   ar
    10    21    22   ar
    11    22    23   ar
    12     3     4   ar
    13     4     5   ar
    14     5     6   ar
    15     6     7   ar
    16     7     8    1
    17     7     9   ar
    18     9    10   ar
    19    10    11   ar
    20    11    12   ar
    21    12    13    2
    22    12     2   ar
    23    23    18   ar
    24    11     5   ar
    25    14    15    1
@<TRIPOS>MOLECULE
*****
 23 25 0 0 0
SMALL
GASTEIGER

@<TRIPOS>ATOM
      1 C          64.2506   89.7283   13.8631 C.3     1  UNL1        0.1363
      2 N          63.4691   88.9071   12.8807 N.ar    1  UNL1       -0.2669
      3 C          63.4220   87.4144   13.0208 C.ar    1  UNL1        0.2002
      4 N          62.6405   86.5932   12.0385 N.ar    1  UNL1       -0.2150
      5 C          61.9061   87.2648   10.9161 C.ar    1  UNL1        0.0895
      6 C          61.1246   86.4436    9.9338 C.ar    1  UNL1        0.0307
      7 C          60.3903   87.1152    8.8114 C.ar    1  UNL1        0.0592
      8 CL         59.6087   86.2940    7.8291 Cl      1  UNL1       -0.0822
      9 C          60.4374   88.6079    8.6714 C.ar    1  UNL1        0.0116
     10 C          61.2189   89.4290    9.6537 C.ar    1  UNL1        0.0071
     11 C          61.9532   88.7575   10.7760 C.ar    1  UNL1        0.0740
     12 C          62.7348   89.5786   11.7584 C.ar    1  UNL1        0.2643
     13 O          62.7819   91.0713   11.6183 O.2     1  UNL1       -0.2668
     14 N          64.1563   86.7428   14.1433 N.pl3   1  UNL1       -0.3039
     15 H          64.8176   87.2472   14.6702 H       1  UNL1        0.1496
     16 C          63.8832   85.3030   14.4628 C.3     1  UNL1        0.0942
     17 C          64.7656   84.2292   13.8987 C.3     1  UNL1        0.0476
     18 C          64.1955   83.2042   12.9635 C.ar    1  UNL1       -0.0205
     19 C          64.4218   83.3289   11.4860 C.ar    1  UNL1       -0.0042
     20 C          63.8517   82.3040   10.5508 C.ar    1  UNL1       -0.0003
     21 C          63.0552   81.1545   11.0932 C.ar    1  UNL1       -0.0000
     22 C          62.8289   81.0299   12.5707 C.ar    1  UNL1       -0.0003
     23 C          63.3990   82.0547   13.5059 C.ar    1  UNL1       -0.0042
@<TRIPOS>BOND
     1     1     2    1
     2     2     3   ar
     3     3    14    1
     4    14    16    1
     5    16    17    1
     6    17    18    1
     7    18    19   ar
     8    19    20   ar
     9    20    21   ar
    10    21    22   ar
    11    22    23   ar
    12     3     4   ar
    13     4     5   ar
    14     5     6   ar
    15     6     7   ar
    16     7     8    1
    17     7     9   ar
    18     9    10   ar
    19    10    11   ar
    20    11    12   ar
    21    12    13    2
    22    12     2   ar
    23    23    18   ar
    24    11     5   ar
    25    14    15    1
@<TRIPOS>MOLECULE
*****
 23 25 0 0 0
SMALL
GASTEIGER

@<TRIPOS>ATOM
      1 C          60.4967   87.9001    8.4812 C.3     1  UNL1        0.1363
      2 N          61.1690   86.9901    9.4661 N.ar    1  UNL1       -0.2669
      3 C          61.0124   87.2315   10.9382 C.ar    1  UNL1        0.2002
      4 N          61.6847   86.3216   11.9231 N.ar    1  UNL1       -0.2150
      5 C          62.5137   85.1703   11.4359 C.ar    1  UNL1        0.0895
      6 C          63.1860   84.2604   12.4208 C.ar    1  UNL1        0.0307
      7 C          64.0150   83.1092   11.9335 C.ar    1  UNL1        0.0592
      8 CL         64.6874   82.1992   12.9184 Cl      1  UNL1       -0.0822
      9 C          64.1717   82.8679   10.4614 C.ar    1  UNL1        0.0116
     10 C          63.4994   83.7778    9.4765 C.ar    1  UNL1        0.0071
     11 C          62.6704   84.9290    9.9637 C.ar    1  UNL1        0.0740
     12 C          61.9980   85.8389    8.9788 C.ar    1  UNL1        0.2643
     13 O          62.1547   85.5976    7.5067 O.2     1  UNL1       -0.2668
     14 N          60.1833   88.3827   11.4255 N.pl3   1  UNL1       -0.3039
     15 H          59.2196   88.2620   11.5863 H       1  UNL1        0.1496
     16 C          60.8227   89.7178   11.6677 C.3     1  UNL1        0.0942
     17 C          62.2344   89.9647   11.2248 C.3     1  UNL1        0.0476
     18 C          63.3002   90.2502   12.2410 C.ar    1  UNL1       -0.0205
     19 C          64.1281   91.4960   12.1297 C.ar    1  UNL1       -0.0042
     20 C          65.1939   91.7815   13.1459 C.ar    1  UNL1       -0.0003
     21 C          65.4317   90.8211   14.2733 C.ar    1  UNL1       -0.0000
     22 C          64.6037   89.5753   14.3846 C.ar    1  UNL1       -0.0003
     23 C          63.5380   89.2898   13.3685 C.ar    1  UNL1       -0.0042
@<TRIPOS>BOND
     1     1     2    1
     2     2     3   ar
     3     3    14    1
     4    14    16    1
     5    16    17    1
     6    17    18    1
     7    18    19   ar
     8    19    20   ar
     9    20    21   ar
    10    21    22   ar
    11    22    23   ar
    12     3     4   ar
    13     4     5   ar
    14     5     6   ar
    15     6     7   ar
    16     7     8    1
    17     7     9   ar
    18     9    10   ar
    19    10    11   ar
    20    11    12   ar
    21    12    13    2
    22    12     2   ar
    23    23    18   ar
    24    11     5   ar
    25    14    15    1
@<TRIPOS>MOLECULE
*****
 23 25 0 0 0
SMALL
GASTEIGER

@<TRIPOS>ATOM
      1 C          62.7070   90.8660    9.9674 C.3     1  UNL1        0.1363
      2 N          63.5061   90.9561   11.2337 N.ar    1  UNL1       -0.2669
      3 C          63.2654   89.9763   12.3436 C.ar    1  UNL1        0.2002
      4 N          64.0645   90.0663   13.6099 N.ar    1  UNL1       -0.2150
      5 C          65.1042   91.1361   13.7662 C.ar    1  UNL1        0.0895
      6 C          65.9032   91.2261   15.0325 C.ar    1  UNL1        0.0307
      7 C          66.9429   92.2960   15.1887 C.ar    1  UNL1        0.0592
      8 CL         67.7420   92.3860   16.4550 Cl      1  UNL1       -0.0822
      9 C          67.1836   93.2758   14.0788 C.ar    1  UNL1        0.0116
     10 C          66.3846   93.1858   12.8125 C.ar    1  UNL1        0.0071
     11 C          65.3449   92.1159   12.6562 C.ar    1  UNL1        0.0740
     12 C          64.5458   92.0259   11.3899 C.ar    1  UNL1        0.2643
     13 O          64.7865   93.0057   10.2800 O.2     1  UNL1       -0.2668
     14 N          62.2257   88.9064   12.1873 N.pl3   1  UNL1       -0.3039
     15 H          61.3093   89.0593   12.5129 H       1  UNL1        0.1496
     16 C          62.5822   87.6036   11.5349 C.3     1  UNL1        0.0942
     17 C          61.4989   86.6866   11.0498 C.3     1  UNL1        0.0476
     18 C          61.5490   86.1387    9.6543 C.ar    1  UNL1       -0.0205
     19 C          60.3626   86.2847    8.7482 C.ar    1  UNL1       -0.0042
     20 C          60.4127   85.7369    7.3527 C.ar    1  UNL1       -0.0003
     21 C          61.6493   85.0431    6.8634 C.ar    1  UNL1       -0.0000
     22 C          62.8357   84.8970    7.7695 C.ar    1  UNL1       -0.0003
     23 C          62.7856   85.4449    9.1650 C.ar    1  UNL1       -0.0042
@<TRIPOS>BOND
     1     1     2    1
     2     2     3   ar
     3     3    14    1
     4    14    16    1
     5    16    17    1
     6    17    18    1
     7    18    19   ar
     8    19    20   ar
     9    20    21   ar
    10    21    22   ar
    11    22    23   ar
    12     3     4   ar
    13     4     5   ar
    14     5     6   ar
    15     6     7   ar
    16     7     8    1
    17     7     9   ar
    18     9    10   ar
    19    10    11   ar
    20    11    12   ar
    21    12    13    2
    22    12     2   ar
    23    23    18   ar
    24    11     5   ar
    25    14    15    1
@<TRIPOS>MOLECULE
*****
 23 25 0 0 0
SMALL
GASTEIGER

@<TRIPOS>ATOM
      1 C          63.9396   83.0581   10.0571 C.3     1  UNL1        0.1363
      2 N          63.2151   84.3230   10.4107 N.ar    1  UNL1       -0.2669
      3 C          63.0609   84.7222   11.8484 C.ar    1  UNL1        0.2002
      4 N          62.3365   85.9871   12.2020 N.ar    1  UNL1       -0.2150
      5 C          61.7661   86.8529   11.1180 C.ar    1  UNL1        0.0895
      6 C          61.0416   88.1178   11.4716 C.ar    1  UNL1        0.0307
      7 C          60.4714   88.9836   10.3876 C.ar    1  UNL1        0.0592
      8 CL         59.7468   90.2486   10.7412 Cl      1  UNL1       -0.0822
      9 C          60.6255   88.5845    8.9499 C.ar    1  UNL1        0.0116
     10 C          61.3500   87.3196    8.5963 C.ar    1  UNL1        0.0071
     11 C          61.9203   86.4538    9.6803 C.ar    1  UNL1        0.0740
     12 C          62.6448   85.1888    9.3267 C.ar    1  UNL1        0.2643
     13 O          62.7990   84.7897    7.8890 O.2     1  UNL1       -0.2668
     14 N          63.6313   83.8563   12.9324 N.pl3   1  UNL1       -0.3039
     15 H          63.3355   82.9216   13.0226 H       1  UNL1        0.1496
     16 C          64.6522   84.4146   13.8790 C.3     1  UNL1        0.0942
     17 C          64.2645   84.7476   15.2891 C.3     1  UNL1        0.0476
     18 C          63.9422   86.1640   15.6638 C.ar    1  UNL1       -0.0205
     19 C          63.1906   86.4525   16.9295 C.ar    1  UNL1       -0.0042
     20 C          62.8684   87.8687   17.3041 C.ar    1  UNL1       -0.0003
     21 C          63.2977   88.9964   16.4132 C.ar    1  UNL1       -0.0000
     22 C          64.0493   88.7079   15.1475 C.ar    1  UNL1       -0.0003
     23 C          64.3715   87.2917   14.7728 C.ar    1  UNL1       -0.0042
@<TRIPOS>BOND
     1     1     2    1
     2     2     3   ar
     3     3    14    1
     4    14    16    1
     5    16    17    1
     6    17    18    1
     7    18    19   ar
     8    19    20   ar
     9    20    21   ar
    10    21    22   ar
    11    22    23   ar
    12     3     4   ar
    13     4     5   ar
    14     5     6   ar
    15     6     7   ar
    16     7     8    1
    17     7     9   ar
    18     9    10   ar
    19    10    11   ar
    20    11    12   ar
    21    12    13    2
    22    12     2   ar
    23    23    18   ar
    24    11     5   ar
    25    14    15    1
@<TRIPOS>MOLECULE
*****
 23 25 0 0 0
SMALL
GASTEIGER

@<TRIPOS>ATOM
      1 C          64.1336   85.3424   14.0906 C.3     1  UNL1        0.1363
      2 N          63.4441   86.2179   13.0865 N.ar    1  UNL1       -0.2669
      3 C          63.5279   87.7104   13.2099 C.ar    1  UNL1        0.2002
      4 N          62.8384   88.5859   12.2059 N.ar    1  UNL1       -0.2150
      5 C          62.0650   87.9688   11.0784 C.ar    1  UNL1        0.0895
      6 C          61.3756   88.8443   10.0744 C.ar    1  UNL1        0.0307
      7 C          60.6023   88.2272    8.9469 C.ar    1  UNL1        0.0592
      8 CL         59.9127   89.1027    7.9428 Cl      1  UNL1       -0.0822
      9 C          60.5184   86.7346    8.8235 C.ar    1  UNL1        0.0116
     10 C          61.2079   85.8592    9.8276 C.ar    1  UNL1        0.0071
     11 C          61.9812   86.4763   10.9550 C.ar    1  UNL1        0.0740
     12 C          62.6707   85.6008   11.9591 C.ar    1  UNL1        0.2643
     13 O          62.5869   84.1082   11.8357 O.2     1  UNL1       -0.2668
     14 N          64.3013   88.3275   14.3374 N.pl3   1  UNL1       -0.3039
     15 H          65.2436   88.0811   14.4808 H       1  UNL1        0.1496
     16 C          63.6389   89.3199   15.2464 C.3     1  UNL1        0.0942
     17 C          64.1971   90.7059   15.3775 C.3     1  UNL1        0.0476
     18 C          65.0743   91.2665   14.2975 C.ar    1  UNL1       -0.0205
     19 C          64.4792   91.6657   12.9797 C.ar    1  UNL1       -0.0042
     20 C          65.3564   92.2262   11.8997 C.ar    1  UNL1       -0.0003
     21 C          66.8286   92.3875   12.1375 C.ar    1  UNL1       -0.0000
     22 C          67.4236   91.9883   13.4553 C.ar    1  UNL1       -0.0003
     23 C          66.5465   91.4278   14.5353 C.ar    1  UNL1       -0.0042
@<TRIPOS>BOND
     1     1     2    1
     2     2     3   ar
     3     3    14    1
     4    14    16    1
     5    16    17    1
     6    17    18    1
     7    18    19   ar
     8    19    20   ar
     9    20    21   ar
    10    21    22   ar
    11    22    23   ar
    12     3     4   ar
    13     4     5   ar
    14     5     6   ar
    15     6     7   ar
    16     7     8    1
    17     7     9   ar
    18     9    10   ar
    19    10    11   ar
    20    11    12   ar
    21    12    13    2
    22    12     2   ar
    23    23    18   ar
    24    11     5   ar
    25    14    15    1
@<TRIPOS>MOLECULE
*****
 23 25 0 0 0
SMALL
GASTEIGER

@<TRIPOS>ATOM
      1 C          62.6157   88.9066   11.6382 C.3     1  UNL1        0.1363
      2 N          63.5991   89.6278   12.5117 N.ar    1  UNL1       -0.2669
      3 C          64.0857   88.9895   13.7789 C.ar    1  UNL1        0.2002
      4 N          65.0691   89.7107   14.6523 N.ar    1  UNL1       -0.2150
      5 C          65.5658   91.0703   14.2586 C.ar    1  UNL1        0.0895
      6 C          66.5491   91.7914   15.1320 C.ar    1  UNL1        0.0307
      7 C          67.0458   93.1509   14.7383 C.ar    1  UNL1        0.0592
      8 CL         68.0292   93.8722   15.6118 Cl      1  UNL1       -0.0822
      9 C          66.5591   93.7892   13.4711 C.ar    1  UNL1        0.0116
     10 C          65.5758   93.0680   12.5977 C.ar    1  UNL1        0.0071
     11 C          65.0792   91.7086   12.9914 C.ar    1  UNL1        0.0740
     12 C          64.0958   90.9873   12.1180 C.ar    1  UNL1        0.2643
     13 O          63.6091   91.6256   10.8508 O.2     1  UNL1       -0.2668
     14 N          63.5890   87.6300   14.1726 N.pl3   1  UNL1       -0.3039
     15 H          62.6424   87.3942   14.0397 H       1  UNL1        0.1496
     16 C          64.5345   86.6297   14.7688 C.3     1  UNL1        0.0942
     17 C          64.0019   85.3752   15.3954 C.3     1  UNL1        0.0476
     18 C          63.6352   84.2036   14.5335 C.ar    1  UNL1       -0.0205
     19 C          64.3359   83.9866   13.2250 C.ar    1  UNL1       -0.0042
     20 C          63.9692   82.8151   12.3631 C.ar    1  UNL1       -0.0003
     21 C          62.9019   81.8604   12.8097 C.ar    1  UNL1       -0.0000
     22 C          62.2012   82.0774   14.1181 C.ar    1  UNL1       -0.0003
     23 C          62.5679   83.2489   14.9800 C.ar    1  UNL1       -0.0042
@<TRIPOS>BOND
     1     1     2    1
     2     2     3   ar
     3     3    14    1
     4    14    16    1
     5    16    17    1
     6    17    18    1
     7    18    19   ar
     8    19    20   ar
     9    20    21   ar
    10    21    22   ar
    11    22    23   ar
    12     3     4   ar
    13     4     5   ar
    14     5     6   ar
    15     6     7   ar
    16     7     8    1
    17     7     9   ar
    18     9    10   ar
    19    10    11   ar
    20    11    12   ar
    21    12    13    2
    22    12     2   ar
    23    23    18   ar
    24    11     5   ar
    25    14    15    1
@<TRIPOS>MOLECULE
*****
 23 25 0 0 0
SMALL
GASTEIGER

@<TRIPOS>ATOM
      1 C          64.3627   88.7486   14.1356 C.3     1  UNL1        0.1363
      2 N          63.4825   88.8692   12.9270 N.ar    1  UNL1       -0.2669
      3 C          63.1812   90.2208   12.3504 C.ar    1  UNL1        0.2002
      4 N          62.3011   90.3414   11.1418 N.ar    1  UNL1       -0.2150
      5 C          61.7221   89.1104   10.5097 C.ar    1  UNL1        0.0895
      6 C          60.8420   89.2310    9.3011 C.ar    1  UNL1        0.0307
      7 C          60.2630   88.0000    8.6691 C.ar    1  UNL1        0.0592
      8 CL         59.3828   88.1206    7.4605 Cl      1  UNL1       -0.0822
      9 C          60.5642   86.6484    9.2457 C.ar    1  UNL1        0.0116
     10 C          61.4444   86.5278   10.4543 C.ar    1  UNL1        0.0071
     11 C          62.0233   87.7588   11.0863 C.ar    1  UNL1        0.0740
     12 C          62.9035   87.6382   12.2950 C.ar    1  UNL1        0.2643
     13 O          63.2047   86.2866   12.8716 O.2     1  UNL1       -0.2668
     14 N          63.7602   91.4518   12.9825 N.pl3   1  UNL1       -0.3039
     15 H          63.1784   92.0681   13.4834 H       1  UNL1        0.1496
     16 C          65.2256   91.7438   12.8513 C.3     1  UNL1        0.0942
     17 C          65.6878   93.1362   12.5390 C.3     1  UNL1        0.0476
     18 C          66.4925   93.3993   11.3006 C.ar    1  UNL1       -0.0205
     19 C          67.3415   92.3114   10.7127 C.ar    1  UNL1       -0.0042
     20 C          68.1461   92.5744    9.4744 C.ar    1  UNL1       -0.0003
     21 C          68.1018   93.9254    8.8241 C.ar    1  UNL1       -0.0000
     22 C          67.2528   95.0133    9.4121 C.ar    1  UNL1       -0.0003
     23 C          66.4482   94.7502   10.6503 C.ar    1  UNL1       -0.0042
@<TRIPOS>BOND
     1     1     2    1
     2     2     3   ar
     3     3    14    1
     4    14    16    1
     5    16    17    1
     6    17    18    1
     7    18    19   ar
     8    19    20   ar
     9    20    21   ar
    10    21    22   ar
    11    22    23   ar
    12     3     4   ar
    13     4     5   ar
    14     5     6   ar
    15     6     7   ar
    16     7     8    1
    17     7     9   ar
    18     9    10   ar
    19    10    11   ar
    20    11    12   ar
    21    12    13    2
    22    12     2   ar
    23    23    18   ar
    24    11     5   ar
    25    14    15    1
@<TRIPOS>MOLECULE
*****
 23 25 0 0 0
SMALL
GASTEIGER

@<TRIPOS>ATOM
      1 C          64.5862   83.5186   12.5127 C.3     1  UNL1        0.1363
      2 N          63.6300   84.4657   11.8502 N.ar    1  UNL1       -0.2669
      3 C          63.0100   85.5800   12.6401 C.ar    1  UNL1        0.2002
      4 N          62.0539   86.5271   11.9777 N.ar    1  UNL1       -0.2150
      5 C          61.7179   86.3600   10.5254 C.ar    1  UNL1        0.0895
      6 C          60.7618   87.3072    9.8630 C.ar    1  UNL1        0.0307
      7 C          60.4258   87.1401    8.4108 C.ar    1  UNL1        0.0592
      8 CL         59.4697   88.0872    7.7483 Cl      1  UNL1       -0.0822
      9 C          61.0458   86.0258    7.6209 C.ar    1  UNL1        0.0116
     10 C          62.0019   85.0786    8.2833 C.ar    1  UNL1        0.0071
     11 C          62.3379   85.2458    9.7355 C.ar    1  UNL1        0.0740
     12 C          63.2940   84.2986   10.3980 C.ar    1  UNL1        0.2643
     13 O          63.9141   83.1843    9.6081 O.2     1  UNL1       -0.2668
     14 N          63.3460   85.7471   14.0925 N.pl3   1  UNL1       -0.3039
     15 H          62.8600   85.2277   14.7731 H       1  UNL1        0.1496
     16 C          64.4226   86.7055   14.5077 C.3     1  UNL1        0.0942
     17 C          64.0572   88.0627   15.0315 C.3     1  UNL1        0.0476
     18 C          64.2156   89.2716   14.1576 C.ar    1  UNL1       -0.0205
     19 C          63.3981   89.4052   12.9070 C.ar    1  UNL1       -0.0042
     20 C          63.5565   90.6140   12.0331 C.ar    1  UNL1       -0.0003
     21 C          64.5322   91.6891   12.4098 C.ar    1  UNL1       -0.0000
     22 C          65.3497   91.5555   13.6604 C.ar    1  UNL1       -0.0003
     23 C          65.1914   90.3467   14.5343 C.ar    1  UNL1       -0.0042
@<TRIPOS>BOND
     1     1     2    1
     2     2     3   ar
     3     3    14    1
     4    14    16    1
     5    16    17    1
     6    17    18    1
     7    18    19   ar
     8    19    20   ar
     9    20    21   ar
    10    21    22   ar
    11    22    23   ar
    12     3     4   ar
    13     4     5   ar
    14     5     6   ar
    15     6     7   ar
    16     7     8    1
    17     7     9   ar
    18     9    10   ar
    19    10    11   ar
    20    11    12   ar
    21    12    13    2
    22    12     2   ar
    23    23    18   ar
    24    11     5   ar
    25    14    15    1
