@<TRIPOS>MOLECULE
*****
 36 40 0 0 0
SMALL
GASTEIGER

@<TRIPOS>ATOM
      1 C          59.7646   85.5347    7.6553 C.3     1  UNL1        0.0754
      2 C          59.9650   87.0108    7.8306 C.2     1  UNL1        0.1177
      3 C          60.6931   87.5311    9.0345 C.2     1  UNL1        0.1165
      4 C          60.8935   89.0073    9.2097 C.3     1  UNL1        0.2689
      5 N          60.3658   89.9632    8.1812 N.2     1  UNL1       -0.0600
      6 C          59.6378   89.4428    6.9774 C.2     1  UNL1        0.3202
      7 N          59.4374   87.9667    6.8021 N.pl3   1  UNL1       -0.2028
      8 H          58.9595   87.6253    6.0120 H       1  UNL1        0.2982
      9 C          61.6215   89.5276   10.4136 C.ar    1  UNL1        0.0582
     10 C          63.0505   89.9679   10.2935 C.ar    1  UNL1        0.0033
     11 C          63.7785   90.4882   11.4973 C.ar    1  UNL1        0.0114
     12 C          63.0777   90.5684   12.8212 C.ar    1  UNL1        0.0599
     13 CL         63.8058   91.0887   14.0250 Cl      1  UNL1       -0.0822
     14 C          61.6488   90.1281   12.9411 C.ar    1  UNL1        0.0408
     15 C          60.9207   89.6078   11.7373 C.ar    1  UNL1        0.1413
     16 F          59.4917   89.1675   11.8573 F       1  UNL1       -0.2043
     17 C          59.1101   90.3988    5.9488 C.ar    1  UNL1        0.0860
     18 C          57.6307   90.5920    5.7937 C.ar    1  UNL1        0.0281
     19 C          57.1030   91.5479    4.7652 C.ar    1  UNL1        0.1001
     20 N          58.0547   92.3105    3.8919 N.ar    1  UNL1       -0.2324
     21 C          59.5341   92.1173    4.0470 C.ar    1  UNL1        0.1386
     22 CL         60.4857   92.8799    3.1737 Cl      1  UNL1       -0.0613
     23 C          60.0617   91.1613    5.0756 C.ar    1  UNL1        0.0382
     24 C          61.2208   86.5753   10.0630 C.2     1  UNL1        0.2527
     25 O          60.6394   86.5654   11.4458 O.2     1  UNL1       -0.2699
     26 N          62.3297   85.6294    9.7088 N.am    1  UNL1       -0.2836
     27 H          62.7112   85.6359    8.8012 H       1  UNL1        0.1549
     28 C          62.8574   84.6735   10.7374 C.2     1  UNL1        0.0322
     29 C          63.7663   83.5541   10.3246 C.2     1  UNL1        0.0122
     30 C          64.2940   82.5982   11.3533 C.2     1  UNL1        0.0216
     31 C          63.9125   82.7619   12.7947 C.2     1  UNL1        0.1008
     32 N          64.2737   81.9810   14.0234 N.2     1  UNL1       -0.1482
     33 N          63.5879   82.6179   15.1955 N.2     1  UNL1       -0.1467
     34 C          62.8028   83.7924   14.6913 C.2     1  UNL1        0.1198
     35 C          63.0035   83.8814   13.2074 C.2     1  UNL1        0.0238
     36 C          62.4759   84.8372   12.1788 C.3     1  UNL1        0.0707
@<TRIPOS>BOND
     1     1     2    1
     2     2     3    2
     3     3    24    1
     4    24    25    2
     5    24    26   am
     6    26    28    1
     7    28    29    2
     8    29    30    1
     9    30    31    2
    10    31    32    1
    11    32    33    2
    12    33    34    1
    13    34    35    2
    14    35    36    1
    15     3     4    1
    16     4     9    1
    17     9    10   ar
    18    10    11   ar
    19    11    12   ar
    20    12    13    1
    21    12    14   ar
    22    14    15   ar
    23    15    16    1
    24     4     5    1
    25     5     6    2
    26     6    17    1
    27    17    18   ar
    28    18    19   ar
    29    19    20   ar
    30    20    21   ar
    31    21    22    1
    32    21    23   ar
    33     6     7    1
    34     7     2    1
    35    36    28    1
    36    15     9   ar
    37    23    17   ar
    38    35    31    1
    39    26    27    1
    40     7     8    1
@<TRIPOS>MOLECULE
*****
 36 40 0 0 0
SMALL
GASTEIGER

@<TRIPOS>ATOM
      1 C          64.8298   85.8053   15.4789 C.3     1  UNL1        0.0754
      2 C          64.4232   86.8722   14.5063 C.2     1  UNL1        0.1177
      3 C          63.5557   86.5261   13.3325 C.2     1  UNL1        0.1165
      4 C          63.1491   87.5931   12.3598 C.3     1  UNL1        0.2689
      5 N          63.6100   89.0063   12.5608 N.2     1  UNL1       -0.0600
      6 C          64.4775   89.3525   13.7346 C.2     1  UNL1        0.3202
      7 N          64.8841   88.2855   14.7072 N.pl3   1  UNL1       -0.2028
      8 H          65.4534   88.5127   15.4776 H       1  UNL1        0.2982
      9 C          62.2817   87.2470   11.1861 C.ar    1  UNL1        0.0582
     10 C          62.7181   86.1880   10.2174 C.ar    1  UNL1        0.0033
     11 C          61.8506   85.8418    9.0437 C.ar    1  UNL1        0.0114
     12 C          60.5467   86.5546    8.8385 C.ar    1  UNL1        0.0599
     13 CL         59.6793   86.2084    7.6648 Cl      1  UNL1       -0.0822
     14 C          60.1104   87.6135    9.8072 C.ar    1  UNL1        0.0408
     15 C          60.9779   87.9597   10.9810 C.ar    1  UNL1        0.1413
     16 F          60.5415   89.0187   11.9497 F       1  UNL1       -0.2043
     17 C          64.9384   90.7657   13.9356 C.ar    1  UNL1        0.0860
     18 C          65.1515   91.2949   15.3228 C.ar    1  UNL1        0.0281
     19 C          65.6123   92.7081   15.5239 C.ar    1  UNL1        0.1001
     20 N          65.8602   93.5921   14.3376 N.ar    1  UNL1       -0.2324
     21 C          65.6471   93.0630   12.9504 C.ar    1  UNL1        0.1386
     22 CL         65.8949   93.9469   11.7642 Cl      1  UNL1       -0.0613
     23 C          65.1862   91.6497   12.7494 C.ar    1  UNL1        0.0382
     24 C          63.0948   85.1129   13.1315 C.2     1  UNL1        0.2527
     25 O          61.6570   84.7529   13.3625 O.2     1  UNL1       -0.2699
     26 N          64.0716   84.0597   12.6994 N.am    1  UNL1       -0.2836
     27 H          65.0152   84.2960   12.5478 H       1  UNL1        0.1549
     28 C          63.6106   82.6465   12.4984 C.2     1  UNL1        0.0322
     29 C          63.1666   81.8280   13.6743 C.2     1  UNL1        0.0122
     30 C          62.7056   80.4147   13.4732 C.2     1  UNL1        0.0216
     31 C          62.6887   79.8201   12.0962 C.2     1  UNL1        0.1008
     32 N          62.2891   78.4647   11.5932 N.2     1  UNL1       -0.1482
     33 N          62.4863   78.4455   10.1063 N.2     1  UNL1       -0.1467
     34 C          63.0077   79.7891    9.6905 C.2     1  UNL1        0.1198
     35 C          63.1328   80.6387   10.9203 C.2     1  UNL1        0.0238
     36 C          63.5938   82.0518   11.1214 C.3     1  UNL1        0.0707
@<TRIPOS>BOND
     1     1     2    1
     2     2     3    2
     3     3    24    1
     4    24    25    2
     5    24    26   am
     6    26    28    1
     7    28    29    2
     8    29    30    1
     9    30    31    2
    10    31    32    1
    11    32    33    2
    12    33    34    1
    13    34    35    2
    14    35    36    1
    15     3     4    1
    16     4     9    1
    17     9    10   ar
    18    10    11   ar
    19    11    12   ar
    20    12    13    1
    21    12    14   ar
    22    14    15   ar
    23    15    16    1
    24     4     5    1
    25     5     6    2
    26     6    17    1
    27    17    18   ar
    28    18    19   ar
    29    19    20   ar
    30    20    21   ar
    31    21    22    1
    32    21    23   ar
    33     6     7    1
    34     7     2    1
    35    36    28    1
    36    15     9   ar
    37    23    17   ar
    38    35    31    1
    39    26    27    1
    40     7     8    1
@<TRIPOS>MOLECULE
*****
 36 40 0 0 0
SMALL
GASTEIGER

@<TRIPOS>ATOM
      1 C          65.8353   91.1343   14.9828 C.3     1  UNL1        0.0754
      2 C          65.3028   91.4961   13.6281 C.2     1  UNL1        0.1177
      3 C          64.2616   90.6346   12.9769 C.2     1  UNL1        0.1165
      4 C          63.7291   90.9964   11.6220 C.3     1  UNL1        0.2689
      5 N          64.2378   92.2196   10.9184 N.2     1  UNL1       -0.0600
      6 C          65.2789   93.0809   11.5695 C.2     1  UNL1        0.3202
      7 N          65.8114   92.7192   12.9243 N.pl3   1  UNL1       -0.2028
      8 H          66.4947   93.2846   13.3516 H       1  UNL1        0.2982
      9 C          62.6880   90.1351   10.9709 C.ar    1  UNL1        0.0582
     10 C          63.0984   88.9141   10.2021 C.ar    1  UNL1        0.0033
     11 C          62.0573   88.0527    9.5510 C.ar    1  UNL1        0.0114
     12 C          60.6057   88.4122    9.6684 C.ar    1  UNL1        0.0599
     13 CL         59.5646   87.5509    9.0173 Cl      1  UNL1       -0.0822
     14 C          60.1953   89.6331   10.4371 C.ar    1  UNL1        0.0408
     15 C          61.2365   90.4946   11.0884 C.ar    1  UNL1        0.1413
     16 F          60.8261   91.7156   11.8571 F       1  UNL1       -0.2043
     17 C          65.7876   94.3041   10.8658 C.ar    1  UNL1        0.0860
     18 C          65.7843   95.6294   11.5684 C.ar    1  UNL1        0.0281
     19 C          66.2929   96.8525   10.8647 C.ar    1  UNL1        0.1001
     20 N          66.8048   96.7504    9.4584 N.ar    1  UNL1       -0.2324
     21 C          66.8081   95.4252    8.7559 C.ar    1  UNL1        0.1386
     22 CL         67.3200   95.3230    7.3497 Cl      1  UNL1       -0.0613
     23 C          66.2995   94.2020    9.4596 C.ar    1  UNL1        0.0382
     24 C          63.7529   89.4115   13.6806 C.2     1  UNL1        0.2527
     25 O          62.5310   89.4980   14.5463 O.2     1  UNL1       -0.2699
     26 N          64.4661   88.1019   13.5185 N.am    1  UNL1       -0.2836
     27 H          65.2681   88.0452   12.9503 H       1  UNL1        0.1549
     28 C          63.9574   86.8788   14.2222 C.2     1  UNL1        0.0322
     29 C          63.8110   86.8787   15.7150 C.2     1  UNL1        0.0122
     30 C          63.3023   85.6555   16.4187 C.2     1  UNL1        0.0216
     31 C          62.9399   84.4325   15.6295 C.2     1  UNL1        0.1008
     32 N          62.4164   83.0893   16.0439 N.2     1  UNL1       -0.1482
     33 N          62.2392   82.2592   14.8071 N.2     1  UNL1       -0.1467
     34 C          62.6533   83.0894   13.6284 C.2     1  UNL1        0.1198
     35 C          63.0863   84.4326   14.1367 C.2     1  UNL1        0.0238
     36 C          63.5951   85.6557   13.4330 C.3     1  UNL1        0.0707
@<TRIPOS>BOND
     1     1     2    1
     2     2     3    2
     3     3    24    1
     4    24    25    2
     5    24    26   am
     6    26    28    1
     7    28    29    2
     8    29    30    1
     9    30    31    2
    10    31    32    1
    11    32    33    2
    12    33    34    1
    13    34    35    2
    14    35    36    1
    15     3     4    1
    16     4     9    1
    17     9    10   ar
    18    10    11   ar
    19    11    12   ar
    20    12    13    1
    21    12    14   ar
    22    14    15   ar
    23    15    16    1
    24     4     5    1
    25     5     6    2
    26     6    17    1
    27    17    18   ar
    28    18    19   ar
    29    19    20   ar
    30    20    21   ar
    31    21    22    1
    32    21    23   ar
    33     6     7    1
    34     7     2    1
    35    36    28    1
    36    15     9   ar
    37    23    17   ar
    38    35    31    1
    39    26    27    1
    40     7     8    1
@<TRIPOS>MOLECULE
*****
 36 40 0 0 0
SMALL
GASTEIGER

@<TRIPOS>ATOM
      1 C          64.2203   92.2673   11.1474 C.3     1  UNL1        0.0754
      2 C          64.7691   91.7492   12.4436 C.2     1  UNL1        0.1177
      3 C          64.1971   90.5052   13.0564 C.2     1  UNL1        0.1165
      4 C          64.7460   89.9870   14.3527 C.3     1  UNL1        0.2689
      5 N          65.8667   90.7128   15.0362 N.2     1  UNL1       -0.0600
      6 C          66.4386   91.9567   14.4234 C.2     1  UNL1        0.3202
      7 N          65.8899   92.4749   13.1272 N.pl3   1  UNL1       -0.2028
      8 H          66.2653   93.2913   12.7251 H       1  UNL1        0.2982
      9 C          64.1741   88.7431   14.9655 C.ar    1  UNL1        0.0582
     10 C          64.3797   87.4155   14.2982 C.ar    1  UNL1        0.0033
     11 C          63.8078   86.1715   14.9110 C.ar    1  UNL1        0.0114
     12 C          63.0303   86.2551   16.1910 C.ar    1  UNL1        0.0599
     13 CL         62.4583   85.0112   16.8038 Cl      1  UNL1       -0.0822
     14 C          62.8246   87.5827   16.8582 C.ar    1  UNL1        0.0408
     15 C          63.3966   88.8267   16.2454 C.ar    1  UNL1        0.1413
     16 F          63.1909   90.1543   16.9127 F       1  UNL1       -0.2043
     17 C          67.5594   92.6825   15.1070 C.ar    1  UNL1        0.0860
     18 C          67.6546   94.1764   15.0104 C.ar    1  UNL1        0.0281
     19 C          68.7754   94.9022   15.6939 C.ar    1  UNL1        0.1001
     20 N          69.8008   94.1341   16.4740 N.ar    1  UNL1       -0.2324
     21 C          69.7056   92.6403   16.5705 C.ar    1  UNL1        0.1386
     22 CL         70.7310   91.8722   17.3506 Cl      1  UNL1       -0.0613
     23 C          68.5848   91.9145   15.8870 C.ar    1  UNL1        0.0382
     24 C          63.0764   89.7794   12.3729 C.2     1  UNL1        0.2527
     25 O          61.7372   89.6695   13.0397 O.2     1  UNL1       -0.2699
     26 N          63.2949   89.1635   11.0228 N.am    1  UNL1       -0.2836
     27 H          64.1738   89.2356   10.5852 H       1  UNL1        0.1549
     28 C          62.1741   88.4377   10.3393 C.2     1  UNL1        0.0322
     29 C          61.8902   87.0049   10.6803 C.2     1  UNL1        0.0122
     30 C          60.7693   86.2791    9.9968 C.2     1  UNL1        0.0216
     31 C          59.9325   86.9863    8.9724 C.2     1  UNL1        0.1008
     32 N          58.7698   86.5333    8.1399 N.2     1  UNL1       -0.1482
     33 N          58.3351   87.6862    7.2845 N.2     1  UNL1       -0.1467
     34 C          59.2292   88.8517    7.5882 C.2     1  UNL1        0.1198
     35 C          60.2164   88.4192    8.6314 C.2     1  UNL1        0.0238
     36 C          61.3372   89.1449    9.3148 C.3     1  UNL1        0.0707
@<TRIPOS>BOND
     1     1     2    1
     2     2     3    2
     3     3    24    1
     4    24    25    2
     5    24    26   am
     6    26    28    1
     7    28    29    2
     8    29    30    1
     9    30    31    2
    10    31    32    1
    11    32    33    2
    12    33    34    1
    13    34    35    2
    14    35    36    1
    15     3     4    1
    16     4     9    1
    17     9    10   ar
    18    10    11   ar
    19    11    12   ar
    20    12    13    1
    21    12    14   ar
    22    14    15   ar
    23    15    16    1
    24     4     5    1
    25     5     6    2
    26     6    17    1
    27    17    18   ar
    28    18    19   ar
    29    19    20   ar
    30    20    21   ar
    31    21    22    1
    32    21    23   ar
    33     6     7    1
    34     7     2    1
    35    36    28    1
    36    15     9   ar
    37    23    17   ar
    38    35    31    1
    39    26    27    1
    40     7     8    1
@<TRIPOS>MOLECULE
*****
 36 40 0 0 0
SMALL
GASTEIGER

@<TRIPOS>ATOM
      1 C          62.7438   89.4912   10.9328 C.3     1  UNL1        0.0754
      2 C          63.3948   89.2643   12.2649 C.2     1  UNL1        0.1177
      3 C          64.3428   90.2856   12.8202 C.2     1  UNL1        0.1165
      4 C          64.9938   90.0587   14.1524 C.3     1  UNL1        0.2689
      5 N          64.6968   88.8104   14.9293 N.2     1  UNL1       -0.0600
      6 C          63.7489   87.7891   14.3741 C.2     1  UNL1        0.3202
      7 N          63.0979   88.0160   13.0420 N.pl3   1  UNL1       -0.2028
      8 H          62.4757   87.3457   12.6776 H       1  UNL1        0.2982
      9 C          65.9418   91.0799   14.7077 C.ar    1  UNL1        0.0582
     10 C          67.3460   91.1613   14.1865 C.ar    1  UNL1        0.0033
     11 C          68.2940   92.1826   14.7418 C.ar    1  UNL1        0.0114
     12 C          67.8378   93.1225   15.8181 C.ar    1  UNL1        0.0599
     13 CL         68.7858   94.1438   16.3734 Cl      1  UNL1       -0.0822
     14 C          66.4336   93.0411   16.3392 C.ar    1  UNL1        0.0408
     15 C          65.4856   92.0198   15.7839 C.ar    1  UNL1        0.1413
     16 F          64.0813   91.9384   16.3051 F       1  UNL1       -0.2043
     17 C          63.4519   86.5408   15.1511 C.ar    1  UNL1        0.0860
     18 C          63.0877   86.6303   16.6035 C.ar    1  UNL1        0.0281
     19 C          62.7908   85.3821   17.3805 C.ar    1  UNL1        0.1001
     20 N          62.8580   84.0444   16.7052 N.ar    1  UNL1       -0.2324
     21 C          63.2222   83.9549   15.2528 C.ar    1  UNL1        0.1386
     22 CL         63.2894   82.6173   14.5775 Cl      1  UNL1       -0.0613
     23 C          63.5191   85.2032   14.4758 C.ar    1  UNL1        0.0382
     24 C          64.6398   91.5339   12.0433 C.2     1  UNL1        0.2527
     25 O          63.5345   92.2531   11.3284 O.2     1  UNL1       -0.2699
     26 N          66.0420   92.0629   11.9812 N.am    1  UNL1       -0.2836
     27 H          66.7675   91.5908   12.4504 H       1  UNL1        0.1549
     28 C          66.3390   93.3112   11.2042 C.2     1  UNL1        0.0322
     29 C          66.1457   94.6551   11.8416 C.2     1  UNL1        0.0122
     30 C          66.4427   95.9034   11.0646 C.2     1  UNL1        0.0216
     31 C          66.9328   95.8076    9.6502 C.2     1  UNL1        0.1008
     32 N          67.3053   96.8558    8.6439 N.2     1  UNL1       -0.1482
     33 N          67.7287   96.1595    7.3846 N.2     1  UNL1       -0.1467
     34 C          67.6180   94.6811    7.6126 C.2     1  UNL1        0.1198
     35 C          67.1261   94.4636    9.0128 C.2     1  UNL1        0.0238
     36 C          66.8291   93.2154    9.7898 C.3     1  UNL1        0.0707
@<TRIPOS>BOND
     1     1     2    1
     2     2     3    2
     3     3    24    1
     4    24    25    2
     5    24    26   am
     6    26    28    1
     7    28    29    2
     8    29    30    1
     9    30    31    2
    10    31    32    1
    11    32    33    2
    12    33    34    1
    13    34    35    2
    14    35    36    1
    15     3     4    1
    16     4     9    1
    17     9    10   ar
    18    10    11   ar
    19    11    12   ar
    20    12    13    1
    21    12    14   ar
    22    14    15   ar
    23    15    16    1
    24     4     5    1
    25     5     6    2
    26     6    17    1
    27    17    18   ar
    28    18    19   ar
    29    19    20   ar
    30    20    21   ar
    31    21    22    1
    32    21    23   ar
    33     6     7    1
    34     7     2    1
    35    36    28    1
    36    15     9   ar
    37    23    17   ar
    38    35    31    1
    39    26    27    1
    40     7     8    1
