@<TRIPOS>MOLECULE
*****
 37 42 0 0 0
SMALL
GASTEIGER

@<TRIPOS>ATOM
      1 C          62.1673   86.0982   11.0451 C.ar    1  UNL1        0.0846
      2 C          60.8946   86.4560   10.3364 C.ar    1  UNL1        0.0370
      3 C          60.6949   87.9373   10.4618 C.ar    1  UNL1        0.0967
      4 N          61.8441   88.4951   11.2481 N.ar    1  UNL1       -0.2452
      5 N          62.7541   87.3584   11.6085 N.ar    1  UNL1       -0.1730
      6 C          62.7508   84.7219   11.1686 C.3     1  UNL1        0.0757
      7 N          64.3133   85.4453   16.0713 N.pl3   1  UNL1       -0.3441
      8 C          63.8625   84.5279   14.9734 C.ar    1  UNL1        0.1035
      9 C          63.5321   85.0836   13.6200 C.ar    1  UNL1        0.0297
     10 C          63.0813   84.1661   12.5221 C.ar    1  UNL1        0.0090
     11 C          62.9610   82.6930   12.7779 C.ar    1  UNL1        0.1366
     12 N          62.5453   81.5521   11.8972 N.ar    1  UNL1       -0.1258
     13 N          62.6190   80.2913   12.7065 N.ar    1  UNL1       -0.0406
     14 N          63.0801   80.6529   14.0872 N.ar    1  UNL1       -0.1095
     15 C          63.2915   82.1373   14.1314 C.ar    1  UNL1        0.1838
     16 N          63.7423   83.0547   15.2291 N.ar    1  UNL1       -0.3249
     17 H          64.3923   86.4122   15.9035 H       1  UNL1        0.1437
     18 H          64.5302   85.0805   16.9596 H       1  UNL1        0.1437
     19 H          63.9592   82.6900   16.1175 H       1  UNL1        0.1686
     20 C          62.0476   89.9364   11.6103 C.3     1  UNL1        0.1539
     21 C          63.2199   90.3392   12.4550 C.ar    1  UNL1        0.0051
     22 C          63.6179   89.5014   13.6339 C.ar    1  UNL1       -0.0021
     23 C          64.7903   89.9041   14.4786 C.ar    1  UNL1        0.0029
     24 C          65.5645   91.1446   14.1444 C.ar    1  UNL1        0.0375
     25 C          65.1665   91.9823   12.9655 C.ar    1  UNL1        0.1450
     26 C          63.9942   91.5796   12.1209 C.ar    1  UNL1        0.0352
     27 O          65.9408   93.2229   12.6314 O.3     1  UNL1       -0.4538
     28 C          66.7073   93.3048   11.3447 C.ar    1  UNL1        0.1423
     29 C          67.5121   92.1293   10.8751 C.ar    1  UNL1        0.0372
     30 C          68.2787   92.2111    9.5883 C.ar    1  UNL1        0.0028
     31 C          68.2405   93.4685    8.7713 C.ar    1  UNL1       -0.0030
     32 C          67.4357   94.6441    9.2409 C.ar    1  UNL1       -0.0061
     33 C          66.6691   94.5621   10.5276 C.ar    1  UNL1        0.0256
     34 C          65.9694   95.8727   10.7345 C.3     1  UNL1        0.0987
     35 N          66.3035   96.7645    9.5756 N.3     1  UNL1       -0.2900
     36 C          67.2097   96.0052    8.6526 C.3     1  UNL1        0.0957
     37 H          66.7753   97.6047    9.9101 H       1  UNL1        0.1239
@<TRIPOS>BOND
     1     7     8    1
     2     8     9   ar
     3     9    10   ar
     4    10     6    1
     5     6     1    1
     6     1     2   ar
     7     2     3   ar
     8     3     4   ar
     9     4    20    1
    10    20    21    1
    11    21    22   ar
    12    22    23   ar
    13    23    24   ar
    14    24    25   ar
    15    25    27    1
    16    27    28    1
    17    28    29   ar
    18    29    30   ar
    19    30    31   ar
    20    31    32   ar
    21    32    33   ar
    22    33    34    1
    23    34    35    1
    24    35    36    1
    25    25    26   ar
    26     4     5   ar
    27    10    11   ar
    28    11    12   ar
    29    12    13   ar
    30    13    14   ar
    31    14    15   ar
    32    15    16   ar
    33    16     8   ar
    34     5     1   ar
    35    15    11    1
    36    26    21   ar
    37    33    28   ar
    38    36    32    1
    39     7    17    1
    40     7    18    1
    41    35    37    1
    42    16    19    1
@<TRIPOS>MOLECULE
*****
 37 42 0 0 0
SMALL
GASTEIGER

@<TRIPOS>ATOM
      1 C          62.2249   86.0246   11.0111 C.ar    1  UNL1        0.0846
      2 C          60.8933   86.3265   10.3900 C.ar    1  UNL1        0.0370
      3 C          60.6457   87.8004   10.5177 C.ar    1  UNL1        0.0967
      4 N          61.8243   88.4094   11.2177 N.ar    1  UNL1       -0.2452
      5 N          62.8003   87.3119   11.5226 N.ar    1  UNL1       -0.1730
      6 C          62.8682   84.6728   11.1043 C.3     1  UNL1        0.0757
      7 N          61.8516   80.1709   13.4919 N.pl3   1  UNL1       -0.3441
      8 C          62.2383   81.6187   13.5591 C.ar    1  UNL1        0.1035
      9 C          62.3599   82.4219   12.2982 C.ar    1  UNL1        0.0297
     10 C          62.7466   83.8697   12.3654 C.ar    1  UNL1        0.0090
     11 C          63.0116   84.5142   13.6936 C.ar    1  UNL1        0.1366
     12 N          63.4070   85.9113   14.0702 N.ar    1  UNL1       -0.1258
     13 N          63.5298   85.9715   15.5639 N.ar    1  UNL1       -0.0406
     14 N          63.2103   84.6117   16.1106 N.ar    1  UNL1       -0.1095
     15 C          62.8900   83.7110   14.9546 C.ar    1  UNL1        0.1838
     16 N          62.5033   82.2633   14.8874 N.ar    1  UNL1       -0.3249
     17 H          61.6777   79.7478   12.6201 H       1  UNL1        0.1437
     18 H          61.7718   79.6438   14.3195 H       1  UNL1        0.1437
     19 H          62.4235   81.7361   15.7150 H       1  UNL1        0.1686
     20 C          61.9967   89.8612   11.5538 C.3     1  UNL1        0.1539
     21 C          63.1589   90.3040   12.3921 C.ar    1  UNL1        0.0051
     22 C          63.5732   89.4964   13.5864 C.ar    1  UNL1       -0.0021
     23 C          64.7355   89.9393   14.4248 C.ar    1  UNL1        0.0029
     24 C          65.4836   91.1898   14.0689 C.ar    1  UNL1        0.0375
     25 C          65.0694   91.9973   12.8747 C.ar    1  UNL1        0.1450
     26 C          63.9071   91.5545   12.0364 C.ar    1  UNL1        0.0352
     27 O          65.8175   93.2479   12.5189 O.3     1  UNL1       -0.4538
     28 C          66.6289   93.3035   11.2586 C.ar    1  UNL1        0.1423
     29 C          67.5070   92.1478   10.8803 C.ar    1  UNL1        0.0372
     30 C          68.3185   92.2033    9.6200 C.ar    1  UNL1        0.0028
     31 C          68.2518   93.4147    8.7379 C.ar    1  UNL1       -0.0030
     32 C          67.3737   94.5706    9.1161 C.ar    1  UNL1       -0.0061
     33 C          66.5623   94.5150   10.3765 C.ar    1  UNL1        0.0256
     34 C          65.7927   95.7976   10.4893 C.3     1  UNL1        0.0987
     35 N          66.1286   96.6459    9.2987 N.3     1  UNL1       -0.2900
     36 C          67.1057   95.8876    8.4501 C.3     1  UNL1        0.0957
     37 H          66.5461   97.5243    9.6062 H       1  UNL1        0.1239
@<TRIPOS>BOND
     1     7     8    1
     2     8     9   ar
     3     9    10   ar
     4    10     6    1
     5     6     1    1
     6     1     2   ar
     7     2     3   ar
     8     3     4   ar
     9     4    20    1
    10    20    21    1
    11    21    22   ar
    12    22    23   ar
    13    23    24   ar
    14    24    25   ar
    15    25    27    1
    16    27    28    1
    17    28    29   ar
    18    29    30   ar
    19    30    31   ar
    20    31    32   ar
    21    32    33   ar
    22    33    34    1
    23    34    35    1
    24    35    36    1
    25    25    26   ar
    26     4     5   ar
    27    10    11   ar
    28    11    12   ar
    29    12    13   ar
    30    13    14   ar
    31    14    15   ar
    32    15    16   ar
    33    16     8   ar
    34     5     1   ar
    35    15    11    1
    36    26    21   ar
    37    33    28   ar
    38    36    32    1
    39     7    17    1
    40     7    18    1
    41    35    37    1
    42    16    19    1
@<TRIPOS>MOLECULE
*****
 37 42 0 0 0
SMALL
GASTEIGER

@<TRIPOS>ATOM
      1 C          63.7915   89.4734   15.0453 C.ar    1  UNL1        0.0846
      2 C          63.1571   89.1263   16.3594 C.ar    1  UNL1        0.0370
      3 C          63.2700   87.6429   16.5512 C.ar    1  UNL1        0.0967
      4 N          63.9743   87.0732   15.3557 N.ar    1  UNL1       -0.2452
      5 N          64.2966   88.2045   14.4249 N.ar    1  UNL1       -0.1730
      6 C          63.9016   90.8480   14.4551 C.3     1  UNL1        0.0757
      7 N          68.7264   92.0500   15.9640 N.pl3   1  UNL1       -0.3441
      8 C          67.6636   92.0288   14.9057 C.ar    1  UNL1        0.1035
      9 C          66.3140   91.4490   15.2095 C.ar    1  UNL1        0.0297
     10 C          65.2512   91.4278   14.1512 C.ar    1  UNL1        0.0090
     11 C          65.5381   91.9865   12.7890 C.ar    1  UNL1        0.1366
     12 N          64.6949   92.1025   11.5539 N.ar    1  UNL1       -0.1258
     13 N          65.5235   92.7541   10.4866 N.ar    1  UNL1       -0.0406
     14 N          66.8787   93.0408   11.0622 N.ar    1  UNL1       -0.1095
     15 C          66.8877   92.5664   12.4852 C.ar    1  UNL1        0.1838
     16 N          67.9504   92.5875   13.5435 N.ar    1  UNL1       -0.3249
     17 H          68.5382   91.6833   16.8581 H       1  UNL1        0.1437
     18 H          69.6122   92.4305   15.7646 H       1  UNL1        0.1437
     19 H          68.8362   92.9681   13.3441 H       1  UNL1        0.1686
     20 C          64.2993   85.6262   15.1303 C.3     1  UNL1        0.1539
     21 C          63.9635   84.9773   13.8203 C.ar    1  UNL1        0.0051
     22 C          64.7276   83.7699   13.3637 C.ar    1  UNL1       -0.0021
     23 C          64.3918   83.1210   12.0537 C.ar    1  UNL1        0.0029
     24 C          63.2918   83.6794   11.2003 C.ar    1  UNL1        0.0375
     25 C          62.5277   84.8867   11.6569 C.ar    1  UNL1        0.1450
     26 C          62.8635   85.5356   12.9669 C.ar    1  UNL1        0.0352
     27 O          61.4277   85.4451   10.8034 O.3     1  UNL1       -0.4538
     28 C          61.4345   86.8968   10.4263 C.ar    1  UNL1        0.1423
     29 C          62.3165   87.8595   11.1647 C.ar    1  UNL1        0.0372
     30 C          62.3233   89.3113   10.7876 C.ar    1  UNL1        0.0028
     31 C          61.4481   89.8005    9.6719 C.ar    1  UNL1       -0.0030
     32 C          60.5661   88.8378    8.9333 C.ar    1  UNL1       -0.0061
     33 C          60.5593   87.3860    9.3106 C.ar    1  UNL1        0.0256
     34 C          59.5923   86.6774    8.4090 C.3     1  UNL1        0.0987
     35 N          59.0015   87.6913    7.4746 N.3     1  UNL1       -0.2900
     36 C          59.6033   89.0264    7.7987 C.3     1  UNL1        0.0957
     37 H          57.9898   87.7283    7.5988 H       1  UNL1        0.1239
@<TRIPOS>BOND
     1     7     8    1
     2     8     9   ar
     3     9    10   ar
     4    10     6    1
     5     6     1    1
     6     1     2   ar
     7     2     3   ar
     8     3     4   ar
     9     4    20    1
    10    20    21    1
    11    21    22   ar
    12    22    23   ar
    13    23    24   ar
    14    24    25   ar
    15    25    27    1
    16    27    28    1
    17    28    29   ar
    18    29    30   ar
    19    30    31   ar
    20    31    32   ar
    21    32    33   ar
    22    33    34    1
    23    34    35    1
    24    35    36    1
    25    25    26   ar
    26     4     5   ar
    27    10    11   ar
    28    11    12   ar
    29    12    13   ar
    30    13    14   ar
    31    14    15   ar
    32    15    16   ar
    33    16     8   ar
    34     5     1   ar
    35    15    11    1
    36    26    21   ar
    37    33    28   ar
    38    36    32    1
    39     7    17    1
    40     7    18    1
    41    35    37    1
    42    16    19    1
@<TRIPOS>MOLECULE
*****
 37 42 0 0 0
SMALL
GASTEIGER

@<TRIPOS>ATOM
      1 C          63.8766   86.0780   15.7009 C.ar    1  UNL1        0.0846
      2 C          63.1411   86.2836   16.9919 C.ar    1  UNL1        0.0370
      3 C          62.9185   87.7564   17.1690 C.ar    1  UNL1        0.0967
      4 N          63.5164   88.4610   15.9875 N.ar    1  UNL1       -0.2452
      5 N          64.1086   87.4236   15.0801 N.ar    1  UNL1       -0.1730
      6 C          64.3050   84.7584   15.1308 C.3     1  UNL1        0.0757
      7 N          62.3885   85.6599   10.3858 N.pl3   1  UNL1       -0.3441
      8 C          62.7253   84.7027   11.4905 C.ar    1  UNL1        0.1035
      9 C          63.3467   85.2091   12.7582 C.ar    1  UNL1        0.0297
     10 C          63.6835   84.2519   13.8630 C.ar    1  UNL1        0.0090
     11 C          63.3989   82.7882   13.6998 C.ar    1  UNL1        0.1366
     12 N          63.6196   81.6154   14.6086 N.ar    1  UNL1       -0.1258
     13 N          63.1345   80.3842   13.9024 N.ar    1  UNL1       -0.0406
     14 N          62.6140   80.7960   12.5572 N.ar    1  UNL1       -0.1095
     15 C          62.7775   82.2818   12.4320 C.ar    1  UNL1        0.1838
     16 N          62.4407   83.2390   11.3273 N.ar    1  UNL1       -0.3249
     17 H          62.5753   86.6206   10.4928 H       1  UNL1        0.1437
     18 H          61.9806   85.3275    9.5537 H       1  UNL1        0.1437
     19 H          62.0328   82.9067   10.4952 H       1  UNL1        0.1686
     20 C          63.5213   89.9428   15.7541 C.3     1  UNL1        0.1539
     21 C          63.7754   90.4846   14.3788 C.ar    1  UNL1        0.0051
     22 C          62.9443   90.0141   13.2220 C.ar    1  UNL1       -0.0021
     23 C          63.1984   90.5560   11.8465 C.ar    1  UNL1        0.0029
     24 C          64.2835   91.5683   11.6278 C.ar    1  UNL1        0.0375
     25 C          65.1145   92.0387   12.7846 C.ar    1  UNL1        0.1450
     26 C          64.8605   91.4969   14.1600 C.ar    1  UNL1        0.0352
     27 O          66.1996   93.0511   12.5658 O.3     1  UNL1       -0.4538
     28 C          66.8934   93.1319   11.2385 C.ar    1  UNL1        0.1423
     29 C          67.8983   92.0874   10.8525 C.ar    1  UNL1        0.0372
     30 C          68.5921   92.1682    9.5250 C.ar    1  UNL1        0.0028
     31 C          68.2810   93.2937    8.5835 C.ar    1  UNL1       -0.0030
     32 C          67.2760   94.3383    8.9694 C.ar    1  UNL1       -0.0061
     33 C          66.5822   94.2574   10.2969 C.ar    1  UNL1        0.0256
     34 C          65.6452   95.4240   10.4020 C.3     1  UNL1        0.0987
     35 N          65.7599   96.2259    9.1395 N.3     1  UNL1       -0.2900
     36 C          66.7677   95.5549    8.2542 C.3     1  UNL1        0.0957
     37 H          66.0676   97.1735    9.3580 H       1  UNL1        0.1239
@<TRIPOS>BOND
     1     7     8    1
     2     8     9   ar
     3     9    10   ar
     4    10     6    1
     5     6     1    1
     6     1     2   ar
     7     2     3   ar
     8     3     4   ar
     9     4    20    1
    10    20    21    1
    11    21    22   ar
    12    22    23   ar
    13    23    24   ar
    14    24    25   ar
    15    25    27    1
    16    27    28    1
    17    28    29   ar
    18    29    30   ar
    19    30    31   ar
    20    31    32   ar
    21    32    33   ar
    22    33    34    1
    23    34    35    1
    24    35    36    1
    25    25    26   ar
    26     4     5   ar
    27    10    11   ar
    28    11    12   ar
    29    12    13   ar
    30    13    14   ar
    31    14    15   ar
    32    15    16   ar
    33    16     8   ar
    34     5     1   ar
    35    15    11    1
    36    26    21   ar
    37    33    28   ar
    38    36    32    1
    39     7    17    1
    40     7    18    1
    41    35    37    1
    42    16    19    1
@<TRIPOS>MOLECULE
*****
 37 42 0 0 0
SMALL
GASTEIGER

@<TRIPOS>ATOM
      1 C          61.9705   90.4744   10.6247 C.ar    1  UNL1        0.0846
      2 C          60.5331   90.8169   10.8825 C.ar    1  UNL1        0.0370
      3 C          59.7012   89.6190   10.5324 C.ar    1  UNL1        0.0967
      4 N          60.6243   88.5360   10.0582 N.ar    1  UNL1       -0.2452
      5 N          62.0269   89.0647   10.1153 N.ar    1  UNL1       -0.1730
      6 C          63.1453   91.3821   10.8388 C.3     1  UNL1        0.0757
      7 N          64.3339   88.8217   15.2015 N.pl3   1  UNL1       -0.3441
      8 C          64.6001   89.9403   14.2381 C.ar    1  UNL1        0.1035
      9 C          63.7397   90.1019   13.0202 C.ar    1  UNL1        0.0297
     10 C          64.0059   91.2205   12.0568 C.ar    1  UNL1        0.0090
     11 C          65.1325   92.1775   12.3115 C.ar    1  UNL1        0.1366
     12 N          65.6314   93.3670   11.5460 N.ar    1  UNL1       -0.1258
     13 N          66.8002   93.9406   12.2909 N.ar    1  UNL1       -0.0406
     14 N          67.0236   93.1056   13.5168 N.ar    1  UNL1       -0.1095
     15 C          65.9929   92.0158   13.5295 C.ar    1  UNL1        0.1838
     16 N          65.7267   90.8973   14.4928 N.ar    1  UNL1       -0.3249
     17 H          63.5945   88.1936   15.0343 H       1  UNL1        0.1437
     18 H          64.8987   88.7157   16.0009 H       1  UNL1        0.1437
     19 H          66.2915   90.7912   15.2922 H       1  UNL1        0.1686
     20 C          60.2166   87.1650    9.6063 C.3     1  UNL1        0.1539
     21 C          61.2607   86.1679    9.1995 C.ar    1  UNL1        0.0051
     22 C          61.4820   85.8638    7.7473 C.ar    1  UNL1       -0.0021
     23 C          62.5262   84.8667    7.3405 C.ar    1  UNL1        0.0029
     24 C          63.3491   84.1738    8.3858 C.ar    1  UNL1        0.0375
     25 C          63.1278   84.4779    9.8379 C.ar    1  UNL1        0.1450
     26 C          62.0837   85.4749   10.2447 C.ar    1  UNL1        0.0352
     27 O          63.9508   83.7849   10.8832 O.3     1  UNL1       -0.4538
     28 C          63.2858   83.1908   12.0892 C.ar    1  UNL1        0.1423
     29 C          62.6975   81.8128   12.0189 C.ar    1  UNL1        0.0372
     30 C          62.0324   81.2187   13.2250 C.ar    1  UNL1        0.0028
     31 C          61.9556   82.0026   14.5015 C.ar    1  UNL1       -0.0030
     32 C          62.5438   83.3807   14.5720 C.ar    1  UNL1       -0.0061
     33 C          63.2089   83.9748   13.3658 C.ar    1  UNL1        0.0256
     34 C          63.6953   85.3455   13.7327 C.3     1  UNL1        0.0987
     35 N          63.3307   85.5985   15.1656 N.3     1  UNL1       -0.2900
     36 C          62.6192   84.3843   15.6842 C.3     1  UNL1        0.0957
     37 H          62.7184   86.4119   15.2285 H       1  UNL1        0.1239
@<TRIPOS>BOND
     1     7     8    1
     2     8     9   ar
     3     9    10   ar
     4    10     6    1
     5     6     1    1
     6     1     2   ar
     7     2     3   ar
     8     3     4   ar
     9     4    20    1
    10    20    21    1
    11    21    22   ar
    12    22    23   ar
    13    23    24   ar
    14    24    25   ar
    15    25    27    1
    16    27    28    1
    17    28    29   ar
    18    29    30   ar
    19    30    31   ar
    20    31    32   ar
    21    32    33   ar
    22    33    34    1
    23    34    35    1
    24    35    36    1
    25    25    26   ar
    26     4     5   ar
    27    10    11   ar
    28    11    12   ar
    29    12    13   ar
    30    13    14   ar
    31    14    15   ar
    32    15    16   ar
    33    16     8   ar
    34     5     1   ar
    35    15    11    1
    36    26    21   ar
    37    33    28   ar
    38    36    32    1
    39     7    17    1
    40     7    18    1
    41    35    37    1
    42    16    19    1
@<TRIPOS>MOLECULE
*****
 37 42 0 0 0
SMALL
GASTEIGER

@<TRIPOS>ATOM
      1 C          62.8041   89.9798   12.3471 C.ar    1  UNL1        0.0846
      2 C          61.8767   90.8766   11.5818 C.ar    1  UNL1        0.0370
      3 C          61.0073   90.0139   10.7159 C.ar    1  UNL1        0.0967
      4 N          61.3974   88.5839   10.9460 N.ar    1  UNL1       -0.2452
      5 N          62.5079   88.5629   11.9542 N.ar    1  UNL1       -0.1730
      6 C          63.8449   90.4223   13.3324 C.3     1  UNL1        0.0757
      7 N          65.8285   93.7088    9.8302 N.pl3   1  UNL1       -0.3441
      8 C          65.7628   93.1944   11.2378 C.ar    1  UNL1        0.1035
      9 C          64.8367   92.0656   11.5813 C.ar    1  UNL1        0.0297
     10 C          64.7710   91.5512   12.9889 C.ar    1  UNL1        0.0090
     11 C          65.6314   92.1658   14.0528 C.ar    1  UNL1        0.1366
     12 N          65.7816   91.8719   15.5161 N.ar    1  UNL1       -0.1258
     13 N          66.8005   92.8192   16.0768 N.ar    1  UNL1       -0.0406
     14 N          67.2800   93.6985   14.9602 N.ar    1  UNL1       -0.1095
     15 C          66.5575   93.2946   13.7093 C.ar    1  UNL1        0.1838
     16 N          66.6232   93.8090   12.3017 N.ar    1  UNL1       -0.3249
     17 H          65.2638   93.3055    9.1319 H       1  UNL1        0.1437
     18 H          66.4363   94.4497    9.6048 H       1  UNL1        0.1437
     19 H          67.2310   94.5499   12.0762 H       1  UNL1        0.1686
     20 C          60.7846   87.3853   10.2842 C.3     1  UNL1        0.1539
     21 C          61.6638   86.3133    9.7117 C.ar    1  UNL1        0.0051
     22 C          61.7918   86.1629    8.2247 C.ar    1  UNL1       -0.0021
     23 C          62.6710   85.0908    7.6523 C.ar    1  UNL1        0.0029
     24 C          63.4222   84.1691    8.5668 C.ar    1  UNL1        0.0375
     25 C          63.2941   84.3196   10.0537 C.ar    1  UNL1        0.1450
     26 C          62.4150   85.3916   10.6261 C.ar    1  UNL1        0.0352
     27 O          64.0454   83.3979   10.9682 O.3     1  UNL1       -0.4538
     28 C          63.3492   82.7732   12.1407 C.ar    1  UNL1        0.1423
     29 C          62.8122   81.3764   12.0372 C.ar    1  UNL1        0.0372
     30 C          62.1160   80.7516   13.2097 C.ar    1  UNL1        0.0028
     31 C          61.9567   81.5236   14.4859 C.ar    1  UNL1       -0.0030
     32 C          62.4937   82.9205   14.5896 C.ar    1  UNL1       -0.0061
     33 C          63.1899   83.5452   13.4170 C.ar    1  UNL1        0.0256
     34 C          63.6124   84.9291   13.8122 C.3     1  UNL1        0.0987
     35 N          63.1773   85.1596   15.2291 N.3     1  UNL1       -0.2900
     36 C          62.4859   83.9183   15.7095 C.3     1  UNL1        0.0957
     37 H          62.5352   85.9512   15.2696 H       1  UNL1        0.1239
@<TRIPOS>BOND
     1     7     8    1
     2     8     9   ar
     3     9    10   ar
     4    10     6    1
     5     6     1    1
     6     1     2   ar
     7     2     3   ar
     8     3     4   ar
     9     4    20    1
    10    20    21    1
    11    21    22   ar
    12    22    23   ar
    13    23    24   ar
    14    24    25   ar
    15    25    27    1
    16    27    28    1
    17    28    29   ar
    18    29    30   ar
    19    30    31   ar
    20    31    32   ar
    21    32    33   ar
    22    33    34    1
    23    34    35    1
    24    35    36    1
    25    25    26   ar
    26     4     5   ar
    27    10    11   ar
    28    11    12   ar
    29    12    13   ar
    30    13    14   ar
    31    14    15   ar
    32    15    16   ar
    33    16     8   ar
    34     5     1   ar
    35    15    11    1
    36    26    21   ar
    37    33    28   ar
    38    36    32    1
    39     7    17    1
    40     7    18    1
    41    35    37    1
    42    16    19    1
@<TRIPOS>MOLECULE
*****
 37 42 0 0 0
SMALL
GASTEIGER

@<TRIPOS>ATOM
      1 C          62.4246   90.4956   11.8671 C.ar    1  UNL1        0.0846
      2 C          63.8096   91.0593   11.7492 C.ar    1  UNL1        0.0370
      3 C          64.5109   90.8434   13.0574 C.ar    1  UNL1        0.0967
      4 N          63.5593   90.1463   13.9840 N.ar    1  UNL1       -0.2452
      5 N          62.2699   89.9313   13.2483 N.ar    1  UNL1       -0.1730
      6 C          61.3780   90.4960   10.7927 C.3     1  UNL1        0.0757
      7 N          58.8098   87.9645    7.0515 N.pl3   1  UNL1       -0.3441
      8 C          59.6980   87.9438    8.2601 C.ar    1  UNL1        0.1035
      9 C          60.0939   89.2302    8.9221 C.ar    1  UNL1        0.0297
     10 C          60.9821   89.2095   10.1307 C.ar    1  UNL1        0.0090
     11 C          61.4744   87.9022   10.6773 C.ar    1  UNL1        0.1366
     12 N          62.3547   87.5706   11.8456 N.ar    1  UNL1       -0.1258
     13 N          62.5029   86.0792   11.9057 N.ar    1  UNL1       -0.0406
     14 N          61.7141   85.4890   10.7745 N.ar    1  UNL1       -0.1095
     15 C          61.0785   86.6158   10.0153 C.ar    1  UNL1        0.1838
     16 N          60.1903   86.6365    8.8067 N.ar    1  UNL1       -0.3249
     17 H          58.4867   88.8224    6.6927 H       1  UNL1        0.1437
     18 H          58.5500   87.1201    6.6170 H       1  UNL1        0.1437
     19 H          59.9304   85.7922    8.3722 H       1  UNL1        0.1686
     20 C          63.8467   89.7361   15.3979 C.3     1  UNL1        0.1539
     21 C          63.6809   88.3040   15.8118 C.ar    1  UNL1        0.0051
     22 C          62.9462   87.9688   17.0760 C.ar    1  UNL1       -0.0021
     23 C          62.7804   86.5366   17.4899 C.ar    1  UNL1        0.0029
     24 C          63.3492   85.4395   16.6397 C.ar    1  UNL1        0.0375
     25 C          64.0839   85.7747   15.3756 C.ar    1  UNL1        0.1450
     26 C          64.2497   87.2068   14.9617 C.ar    1  UNL1        0.0352
     27 O          64.6528   84.6775   14.5254 O.3     1  UNL1       -0.4538
     28 C          63.7664   83.5699   14.0385 C.ar    1  UNL1        0.1423
     29 C          62.7373   82.9755   14.9536 C.ar    1  UNL1        0.0372
     30 C          61.8508   81.8677   14.4667 C.ar    1  UNL1        0.0028
     31 C          61.9935   81.3543   13.0645 C.ar    1  UNL1       -0.0030
     32 C          63.0227   81.9487   12.1492 C.ar    1  UNL1       -0.0061
     33 C          63.9091   83.0564   12.6363 C.ar    1  UNL1        0.0256
     34 C          64.8265   83.4432   11.5143 C.3     1  UNL1        0.0987
     35 N          64.5070   82.5745   10.3339 N.3     1  UNL1       -0.2900
     36 C          63.3923   81.6509   10.7264 C.3     1  UNL1        0.0957
     37 H          65.3297   82.0319   10.0707 H       1  UNL1        0.1239
@<TRIPOS>BOND
     1     7     8    1
     2     8     9   ar
     3     9    10   ar
     4    10     6    1
     5     6     1    1
     6     1     2   ar
     7     2     3   ar
     8     3     4   ar
     9     4    20    1
    10    20    21    1
    11    21    22   ar
    12    22    23   ar
    13    23    24   ar
    14    24    25   ar
    15    25    27    1
    16    27    28    1
    17    28    29   ar
    18    29    30   ar
    19    30    31   ar
    20    31    32   ar
    21    32    33   ar
    22    33    34    1
    23    34    35    1
    24    35    36    1
    25    25    26   ar
    26     4     5   ar
    27    10    11   ar
    28    11    12   ar
    29    12    13   ar
    30    13    14   ar
    31    14    15   ar
    32    15    16   ar
    33    16     8   ar
    34     5     1   ar
    35    15    11    1
    36    26    21   ar
    37    33    28   ar
    38    36    32    1
    39     7    17    1
    40     7    18    1
    41    35    37    1
    42    16    19    1
@<TRIPOS>MOLECULE
*****
 37 42 0 0 0
SMALL
GASTEIGER

@<TRIPOS>ATOM
      1 C          62.4309   90.5032   10.9425 C.ar    1  UNL1        0.0846
      2 C          61.0087   90.9175   11.1785 C.ar    1  UNL1        0.0370
      3 C          60.1314   89.7269   10.9276 C.ar    1  UNL1        0.0967
      4 N          61.0113   88.5769   10.5366 N.ar    1  UNL1       -0.2452
      5 N          62.4325   89.0566   10.5458 N.ar    1  UNL1       -0.1730
      6 C          63.6393   91.3813   11.0792 C.3     1  UNL1        0.0757
      7 N          67.5498   93.2221   13.9636 N.pl3   1  UNL1       -0.3441
      8 C          66.2754   92.4389   13.8509 C.ar    1  UNL1        0.1035
      9 C          65.5945   92.3017   12.5215 C.ar    1  UNL1        0.0297
     10 C          64.3202   91.5184   12.4087 C.ar    1  UNL1        0.0090
     11 C          63.7268   90.8724   13.6255 C.ar    1  UNL1        0.1366
     12 N          62.4909   90.0452   13.8209 N.ar    1  UNL1       -0.1258
     13 N          62.4080   89.6712   15.2712 N.ar    1  UNL1       -0.0406
     14 N          63.5927   90.2672   15.9721 N.ar    1  UNL1       -0.1095
     15 C          64.4078   91.0096   14.9550 C.ar    1  UNL1        0.1838
     16 N          65.6821   91.7929   15.0677 N.ar    1  UNL1       -0.3249
     17 H          67.9392   93.6462   13.1650 H       1  UNL1        0.1437
     18 H          67.9967   93.3122   14.8362 H       1  UNL1        0.1437
     19 H          66.1290   91.8829   15.9402 H       1  UNL1        0.1686
     20 C          60.5510   87.1904   10.1961 C.3     1  UNL1        0.1539
     21 C          61.5293   86.1841    9.6668 C.ar    1  UNL1        0.0051
     22 C          61.7362   86.0453    8.1875 C.ar    1  UNL1       -0.0021
     23 C          62.7146   85.0390    7.6582 C.ar    1  UNL1        0.0029
     24 C          63.4861   84.1715    8.6081 C.ar    1  UNL1        0.0375
     25 C          63.2792   84.3103   10.0872 C.ar    1  UNL1        0.1450
     26 C          62.3009   85.3166   10.6165 C.ar    1  UNL1        0.0352
     27 O          64.0508   83.4428   11.0370 O.3     1  UNL1       -0.4538
     28 C          63.3522   82.7902   12.1929 C.ar    1  UNL1        0.1423
     29 C          62.8412   81.3859   12.0645 C.ar    1  UNL1        0.0372
     30 C          62.1426   80.7332   13.2204 C.ar    1  UNL1        0.0028
     31 C          61.9551   81.4850   14.5048 C.ar    1  UNL1       -0.0030
     32 C          62.4662   82.8895   14.6333 C.ar    1  UNL1       -0.0061
     33 C          63.1647   83.5420   13.4774 C.ar    1  UNL1        0.0256
     34 C          63.5583   84.9276   13.8959 C.3     1  UNL1        0.0987
     35 N          63.1029   85.1314   15.3106 N.3     1  UNL1       -0.2900
     36 C          62.4280   83.8718   15.7662 C.3     1  UNL1        0.0957
     37 H          62.4466   85.9110   15.3541 H       1  UNL1        0.1239
@<TRIPOS>BOND
     1     7     8    1
     2     8     9   ar
     3     9    10   ar
     4    10     6    1
     5     6     1    1
     6     1     2   ar
     7     2     3   ar
     8     3     4   ar
     9     4    20    1
    10    20    21    1
    11    21    22   ar
    12    22    23   ar
    13    23    24   ar
    14    24    25   ar
    15    25    27    1
    16    27    28    1
    17    28    29   ar
    18    29    30   ar
    19    30    31   ar
    20    31    32   ar
    21    32    33   ar
    22    33    34    1
    23    34    35    1
    24    35    36    1
    25    25    26   ar
    26     4     5   ar
    27    10    11   ar
    28    11    12   ar
    29    12    13   ar
    30    13    14   ar
    31    14    15   ar
    32    15    16   ar
    33    16     8   ar
    34     5     1   ar
    35    15    11    1
    36    26    21   ar
    37    33    28   ar
    38    36    32    1
    39     7    17    1
    40     7    18    1
    41    35    37    1
    42    16    19    1
@<TRIPOS>MOLECULE
*****
 37 42 0 0 0
SMALL
GASTEIGER

@<TRIPOS>ATOM
      1 C          62.7239   90.4888   11.6427 C.ar    1  UNL1        0.0846
      2 C          63.9578   91.3407   11.6842 C.ar    1  UNL1        0.0370
      3 C          64.5527   91.2283   13.0565 C.ar    1  UNL1        0.0967
      4 N          63.6865   90.3070   13.8633 N.ar    1  UNL1       -0.2452
      5 N          62.5562   89.8499   12.9894 N.ar    1  UNL1       -0.1730
      6 C          61.8170   90.3075   10.4618 C.3     1  UNL1        0.0757
      7 N          61.8657   85.1662   11.2138 N.pl3   1  UNL1       -0.3441
      8 C          61.4028   86.3606   10.4333 C.ar    1  UNL1        0.1035
      9 C          61.8413   87.7368   10.8378 C.ar    1  UNL1        0.0297
     10 C          61.3784   88.9312   10.0572 C.ar    1  UNL1        0.0090
     11 C          60.4770   88.7493    8.8722 C.ar    1  UNL1        0.1366
     12 N          59.8634   89.7305    7.9179 N.ar    1  UNL1       -0.1258
     13 N          59.0456   88.9607    6.9236 N.ar    1  UNL1       -0.0406
     14 N          59.1538   87.5037    7.2634 N.ar    1  UNL1       -0.1095
     15 C          60.0385   87.3730    8.4677 C.ar    1  UNL1        0.1838
     16 N          60.5014   86.1787    9.2482 N.ar    1  UNL1       -0.3249
     17 H          62.4573   85.2855   11.9916 H       1  UNL1        0.1437
     18 H          61.5779   84.2629   10.9483 H       1  UNL1        0.1437
     19 H          60.2136   85.2754    8.9828 H       1  UNL1        0.1686
     20 C          63.9110   89.9121   15.2929 C.3     1  UNL1        0.1539
     21 C          63.7477   88.4806   15.7100 C.ar    1  UNL1        0.0051
     22 C          63.0311   88.1481   16.9852 C.ar    1  UNL1       -0.0021
     23 C          62.8678   86.7165   17.4024 C.ar    1  UNL1        0.0029
     24 C          63.4211   85.6175   16.5444 C.ar    1  UNL1        0.0375
     25 C          64.1377   85.9501   15.2693 C.ar    1  UNL1        0.1450
     26 C          64.3009   87.3816   14.8522 C.ar    1  UNL1        0.0352
     27 O          64.6910   84.8510   14.4113 O.3     1  UNL1       -0.4538
     28 C          63.8092   83.7139   13.9881 C.ar    1  UNL1        0.1423
     29 C          62.7878   83.1629   14.9384 C.ar    1  UNL1        0.0372
     30 C          61.9059   82.0256   14.5152 C.ar    1  UNL1        0.0028
     31 C          62.0455   81.4395   13.1416 C.ar    1  UNL1       -0.0030
     32 C          63.0669   81.9904   12.1911 C.ar    1  UNL1       -0.0061
     33 C          63.9487   83.1276   12.6144 C.ar    1  UNL1        0.0256
     34 C          64.8586   83.4597   11.4691 C.3     1  UNL1        0.0987
     35 N          64.5392   82.5278   10.3380 N.3     1  UNL1       -0.2900
     36 C          63.4318   81.6198   10.7843 C.3     1  UNL1        0.0957
     37 H          65.3639   81.9768   10.1000 H       1  UNL1        0.1239
@<TRIPOS>BOND
     1     7     8    1
     2     8     9   ar
     3     9    10   ar
     4    10     6    1
     5     6     1    1
     6     1     2   ar
     7     2     3   ar
     8     3     4   ar
     9     4    20    1
    10    20    21    1
    11    21    22   ar
    12    22    23   ar
    13    23    24   ar
    14    24    25   ar
    15    25    27    1
    16    27    28    1
    17    28    29   ar
    18    29    30   ar
    19    30    31   ar
    20    31    32   ar
    21    32    33   ar
    22    33    34    1
    23    34    35    1
    24    35    36    1
    25    25    26   ar
    26     4     5   ar
    27    10    11   ar
    28    11    12   ar
    29    12    13   ar
    30    13    14   ar
    31    14    15   ar
    32    15    16   ar
    33    16     8   ar
    34     5     1   ar
    35    15    11    1
    36    26    21   ar
    37    33    28   ar
    38    36    32    1
    39     7    17    1
    40     7    18    1
    41    35    37    1
    42    16    19    1
