@<TRIPOS>MOLECULE
*****
 26 28 0 0 0
SMALL
GASTEIGER

@<TRIPOS>ATOM
      1 C          63.3086   83.8336   14.8454 C.2     1  UNL1        0.2252
      2 O          64.8061   83.9155   14.8636 O.2     1  UNL1       -0.2750
      3 N          62.4976   84.7277   15.7359 N.am    1  UNL1       -0.3004
      4 H          61.5146   84.6740   15.7240 H       1  UNL1        0.1497
      5 C          62.6218   82.8575   13.9366 C.3     1  UNL1        0.1154
      6 C          63.6143   81.2782   13.1948 C.3     1  UNL1        0.0335
      7 C          63.1856   82.5755   12.5756 C.3     1  UNL1        0.1377
      8 C          62.6390   83.9316   12.2410 C.3     1  UNL1        0.0613
      9 C          62.9546   84.2166   10.8024 C.3     1  UNL1        0.1290
     10 C          63.3393   84.3605    9.3598 C.3     1  UNL1        0.0305
     11 C          62.9769   85.6067    8.6077 C.3     1  UNL1        0.0025
     12 C          62.2298   86.7090    9.2983 C.3     1  UNL1        0.0002
     13 C          61.8450   86.5650   10.7410 C.3     1  UNL1        0.0025
     14 C          62.2075   85.3188   11.4930 C.3     1  UNL1        0.0305
     15 O          63.6963   83.0365   10.2481 O.3     1  UNL1       -0.2256
     16 O          63.8391   82.0222   11.3440 O.3     1  UNL1       -0.2251
     17 C          63.1844   85.7038   16.6446 C.3     1  UNL1        0.1163
     18 C          63.4655   87.0991   16.1714 C.ar    1  UNL1       -0.0026
     19 C          64.2040   87.3202   14.8847 C.ar    1  UNL1       -0.0026
     20 C          64.4851   88.7156   14.4115 C.ar    1  UNL1        0.0009
     21 C          64.0277   89.8898   15.2250 C.ar    1  UNL1        0.0140
     22 C          63.2892   89.6688   16.5117 C.ar    1  UNL1        0.0009
     23 C          63.0080   88.2734   16.9849 C.ar    1  UNL1       -0.0026
     24 C          64.3088   91.2852   14.7517 C.2     1  UNL1        0.0729
     25 O          64.9862   92.2644   15.6641 O.co2   1  UNL1       -0.5446
     26 O          63.9126   91.7013   13.3662 O.co2   1  UNL1       -0.5446
@<TRIPOS>UNITY_ATOM_ATTR
25 1
charge -1
@<TRIPOS>BOND
     1     6     7    1
     2     7     5    1
     3     5     1    1
     4     1     2    2
     5     1     3   am
     6     3    17    1
     7    17    18    1
     8    18    19   ar
     9    19    20   ar
    10    20    21   ar
    11    21    24    1
    12    24    25   ar
    13    24    26   ar
    14    21    22   ar
    15    22    23   ar
    16     7     8    1
    17     8     9    1
    18     9    10    1
    19    10    11    1
    20    11    12    1
    21    12    13    1
    22    13    14    1
    23     9    15    1
    24    15    16    1
    25    16     7    1
    26    23    18   ar
    27    14     9    1
    28     3     4    1
@<TRIPOS>MOLECULE
*****
 26 28 0 0 0
SMALL
GASTEIGER

@<TRIPOS>ATOM
      1 C          64.0178   87.6054   14.2648 C.2     1  UNL1        0.2252
      2 O          63.4810   87.5925   12.8643 O.2     1  UNL1       -0.2750
      3 N          64.0225   88.8808   15.0545 N.am    1  UNL1       -0.3004
      4 H          64.3749   88.8893   15.9737 H       1  UNL1        0.1497
      5 C          64.5498   86.3430   14.8759 C.3     1  UNL1        0.1154
      6 C          63.4458   85.9943   16.5157 C.3     1  UNL1        0.0335
      7 C          63.6106   85.2302   15.2355 C.3     1  UNL1        0.1377
      8 C          63.9717   84.6987   13.8802 C.3     1  UNL1        0.0613
      9 C          63.2212   83.4170   13.6697 C.3     1  UNL1        0.1290
     10 C          62.4097   82.1574   13.6023 C.3     1  UNL1        0.0305
     11 C          62.4730   81.2889   12.3810 C.3     1  UNL1        0.0025
     12 C          63.3480   81.6800   11.2271 C.3     1  UNL1        0.0002
     13 C          64.1595   82.9397   11.2945 C.3     1  UNL1        0.0025
     14 C          64.0962   83.8082   12.5158 C.3     1  UNL1        0.0305
     15 O          62.3962   83.1564   14.8951 O.3     1  UNL1       -0.2256
     16 O          62.6368   84.2770   15.8629 O.3     1  UNL1       -0.2251
     17 C          63.4905   90.1432   14.4434 C.3     1  UNL1        0.1163
     18 C          64.3474   90.9419   13.5066 C.ar    1  UNL1       -0.0026
     19 C          63.8771   91.2154   12.1087 C.ar    1  UNL1       -0.0026
     20 C          64.7339   92.0142   11.1719 C.ar    1  UNL1        0.0009
     21 C          66.0611   92.5395   11.6329 C.ar    1  UNL1        0.0140
     22 C          66.5314   92.2662   13.0307 C.ar    1  UNL1        0.0009
     23 C          65.6746   91.4673   13.9676 C.ar    1  UNL1       -0.0026
     24 C          66.9180   93.3384   10.6959 C.2     1  UNL1        0.0729
     25 O          67.6473   92.6535    9.5784 O.co2   1  UNL1       -0.5446
     26 O          67.0454   94.8219   10.8767 O.co2   1  UNL1       -0.5446
@<TRIPOS>UNITY_ATOM_ATTR
25 1
charge -1
@<TRIPOS>BOND
     1     6     7    1
     2     7     5    1
     3     5     1    1
     4     1     2    2
     5     1     3   am
     6     3    17    1
     7    17    18    1
     8    18    19   ar
     9    19    20   ar
    10    20    21   ar
    11    21    24    1
    12    24    25   ar
    13    24    26   ar
    14    21    22   ar
    15    22    23   ar
    16     7     8    1
    17     8     9    1
    18     9    10    1
    19    10    11    1
    20    11    12    1
    21    12    13    1
    22    13    14    1
    23     9    15    1
    24    15    16    1
    25    16     7    1
    26    23    18   ar
    27    14     9    1
    28     3     4    1
@<TRIPOS>MOLECULE
*****
 26 28 0 0 0
SMALL
GASTEIGER

@<TRIPOS>ATOM
      1 C          64.2551   87.5278   14.3451 C.2     1  UNL1        0.2252
      2 O          64.5899   88.8946   14.8642 O.2     1  UNL1       -0.2750
      3 N          63.5324   87.3776   13.0392 N.am    1  UNL1       -0.3004
      4 H          63.3126   86.4804   12.6985 H       1  UNL1        0.1497
      5 C          64.6429   86.3109   15.1319 C.3     1  UNL1        0.1154
      6 C          63.4186   86.0539   16.7019 C.3     1  UNL1        0.0335
      7 C          63.6176   85.2615   15.4440 C.3     1  UNL1        0.1377
      8 C          64.0309   84.6884   14.1208 C.3     1  UNL1        0.0613
      9 C          63.2194   83.4504   13.8780 C.3     1  UNL1        0.1290
     10 C          62.3394   82.2402   13.7737 C.3     1  UNL1        0.0305
     11 C          62.4273   81.3505   12.5693 C.3     1  UNL1        0.0025
     12 C          63.3952   81.6711   11.4691 C.3     1  UNL1        0.0002
     13 C          64.2752   82.8813   11.5733 C.3     1  UNL1        0.0025
     14 C          64.1873   83.7710   12.7778 C.3     1  UNL1        0.0305
     15 O          62.3046   83.2583   15.0511 O.3     1  UNL1       -0.2256
     16 O          62.5507   84.3776   16.0190 O.3     1  UNL1       -0.2251
     17 C          63.1447   88.5944   12.2525 C.3     1  UNL1        0.1163
     18 C          62.1812   88.4727   11.1093 C.ar    1  UNL1       -0.0026
     19 C          61.4477   89.6840   10.6144 C.ar    1  UNL1       -0.0026
     20 C          60.4842   89.5623    9.4712 C.ar    1  UNL1        0.0009
     21 C          60.2543   88.2294    8.8229 C.ar    1  UNL1        0.0140
     22 C          60.9877   87.0182    9.3177 C.ar    1  UNL1        0.0009
     23 C          61.9512   87.1398   10.4609 C.ar    1  UNL1       -0.0026
     24 C          59.2907   88.1078    7.6796 C.2     1  UNL1        0.0729
     25 O          59.2001   89.2003    6.6558 O.co2   1  UNL1       -0.5446
     26 O          58.4180   86.8937    7.5603 O.co2   1  UNL1       -0.5446
@<TRIPOS>UNITY_ATOM_ATTR
25 1
charge -1
@<TRIPOS>BOND
     1     6     7    1
     2     7     5    1
     3     5     1    1
     4     1     2    2
     5     1     3   am
     6     3    17    1
     7    17    18    1
     8    18    19   ar
     9    19    20   ar
    10    20    21   ar
    11    21    24    1
    12    24    25   ar
    13    24    26   ar
    14    21    22   ar
    15    22    23   ar
    16     7     8    1
    17     8     9    1
    18     9    10    1
    19    10    11    1
    20    11    12    1
    21    12    13    1
    22    13    14    1
    23     9    15    1
    24    15    16    1
    25    16     7    1
    26    23    18   ar
    27    14     9    1
    28     3     4    1
@<TRIPOS>MOLECULE
*****
 26 28 0 0 0
SMALL
GASTEIGER

@<TRIPOS>ATOM
      1 C          60.9216   88.9609   10.9127 C.2     1  UNL1        0.2252
      2 O          59.8441   90.0042   10.9293 O.2     1  UNL1       -0.2750
      3 N          62.3584   89.3640   11.0652 N.am    1  UNL1       -0.3004
      4 H          63.0656   88.6793   11.0543 H       1  UNL1        0.1497
      5 C          60.5624   87.5144   10.7434 C.3     1  UNL1        0.1154
      6 C          60.5969   87.5291    8.7363 C.3     1  UNL1        0.0335
      7 C          61.2992   86.6705    9.7460 C.3     1  UNL1        0.1377
      8 C          61.8475   85.9883   10.9642 C.3     1  UNL1        0.0613
      9 C          62.7765   84.9021   10.5087 C.3     1  UNL1        0.1290
     10 C          63.6716   83.8601    9.9062 C.3     1  UNL1        0.0305
     11 C          64.4398   82.9270   10.7945 C.3     1  UNL1        0.0025
     12 C          64.3129   83.0358   12.2851 C.3     1  UNL1        0.0002
     13 C          63.4178   84.0778   12.8876 C.3     1  UNL1        0.0025
     14 C          62.6496   85.0110   11.9993 C.3     1  UNL1        0.0305
     15 O          62.8023   84.9131    9.0089 O.3     1  UNL1       -0.2256
     16 O          61.8893   86.0060    8.5375 O.3     1  UNL1       -0.2251
     17 C          62.7176   90.8105   11.2345 C.3     1  UNL1        0.1163
     18 C          63.8851   91.1979   12.0928 C.ar    1  UNL1       -0.0026
     19 C          64.8747   92.2118   11.5999 C.ar    1  UNL1       -0.0026
     20 C          66.0422   92.5992   12.4582 C.ar    1  UNL1        0.0009
     21 C          66.2202   91.9728   13.8095 C.ar    1  UNL1        0.0140
     22 C          65.2307   90.9590   14.3024 C.ar    1  UNL1        0.0009
     23 C          64.0631   90.5715   13.4441 C.ar    1  UNL1       -0.0026
     24 C          67.3878   92.3602   14.6678 C.2     1  UNL1        0.0729
     25 O          67.1682   92.7590   16.0970 O.co2   1  UNL1       -0.5446
     26 O          68.7747   92.3488   14.0968 O.co2   1  UNL1       -0.5446
@<TRIPOS>UNITY_ATOM_ATTR
25 1
charge -1
@<TRIPOS>BOND
     1     6     7    1
     2     7     5    1
     3     5     1    1
     4     1     2    2
     5     1     3   am
     6     3    17    1
     7    17    18    1
     8    18    19   ar
     9    19    20   ar
    10    20    21   ar
    11    21    24    1
    12    24    25   ar
    13    24    26   ar
    14    21    22   ar
    15    22    23   ar
    16     7     8    1
    17     8     9    1
    18     9    10    1
    19    10    11    1
    20    11    12    1
    21    12    13    1
    22    13    14    1
    23     9    15    1
    24    15    16    1
    25    16     7    1
    26    23    18   ar
    27    14     9    1
    28     3     4    1
@<TRIPOS>MOLECULE
*****
 26 28 0 0 0
SMALL
GASTEIGER

@<TRIPOS>ATOM
      1 C          60.7972   88.9784   11.6664 C.2     1  UNL1        0.2252
      2 O          59.9533   90.2072   11.8323 O.2     1  UNL1       -0.2750
      3 N          62.1630   88.9175   12.2836 N.am    1  UNL1       -0.3004
      4 H          62.7170   88.1109   12.1747 H       1  UNL1        0.1497
      5 C          60.2754   87.8103   10.8831 C.3     1  UNL1        0.1154
      6 C          60.4949   88.3256    8.9555 C.3     1  UNL1        0.0335
      7 C          61.0978   87.2231    9.7747 C.3     1  UNL1        0.1377
      8 C          61.5287   86.2434   10.8256 C.3     1  UNL1        0.0613
      9 C          62.4915   85.2811   10.1953 C.3     1  UNL1        0.1290
     10 C          63.4343   84.3992    9.4316 C.3     1  UNL1        0.0305
     11 C          64.1137   83.2531   10.1208 C.3     1  UNL1        0.0025
     12 C          63.8503   82.9890   11.5736 C.3     1  UNL1        0.0002
     13 C          62.9075   83.8709   12.3373 C.3     1  UNL1        0.0025
     14 C          62.2281   85.0170   11.6482 C.3     1  UNL1        0.0305
     15 O          62.6556   85.6662    8.7549 O.3     1  UNL1       -0.2256
     16 O          61.7942   86.8664    8.4949 O.3     1  UNL1       -0.2251
     17 C          62.6848   90.0855   13.0668 C.3     1  UNL1        0.1163
     18 C          63.7613   90.9554   12.4886 C.ar    1  UNL1       -0.0026
     19 C          64.8875   91.4324   13.3572 C.ar    1  UNL1       -0.0026
     20 C          65.9640   92.3023   12.7790 C.ar    1  UNL1        0.0009
     21 C          65.9144   92.6952   11.3323 C.ar    1  UNL1        0.0140
     22 C          64.7884   92.2183   10.4637 C.ar    1  UNL1        0.0009
     23 C          63.7118   91.3484   11.0419 C.ar    1  UNL1       -0.0026
     24 C          66.9911   93.5652   10.7541 C.2     1  UNL1        0.0729
     25 O          68.1248   92.9476    9.9905 O.co2   1  UNL1       -0.5446
     26 O          66.9338   95.0525   10.9396 O.co2   1  UNL1       -0.5446
@<TRIPOS>UNITY_ATOM_ATTR
25 1
charge -1
@<TRIPOS>BOND
     1     6     7    1
     2     7     5    1
     3     5     1    1
     4     1     2    2
     5     1     3   am
     6     3    17    1
     7    17    18    1
     8    18    19   ar
     9    19    20   ar
    10    20    21   ar
    11    21    24    1
    12    24    25   ar
    13    24    26   ar
    14    21    22   ar
    15    22    23   ar
    16     7     8    1
    17     8     9    1
    18     9    10    1
    19    10    11    1
    20    11    12    1
    21    12    13    1
    22    13    14    1
    23     9    15    1
    24    15    16    1
    25    16     7    1
    26    23    18   ar
    27    14     9    1
    28     3     4    1
@<TRIPOS>MOLECULE
*****
 26 28 0 0 0
SMALL
GASTEIGER

@<TRIPOS>ATOM
      1 C          64.0538   89.9771   13.8243 C.2     1  UNL1        0.2252
      2 O          64.3090   91.4223   13.5145 O.2     1  UNL1       -0.2750
      3 N          63.3397   89.1113   12.8290 N.am    1  UNL1       -0.3004
      4 H          63.1722   88.1627   13.0324 H       1  UNL1        0.1497
      5 C          64.5128   89.3974   15.1296 C.3     1  UNL1        0.1154
      6 C          63.1674   89.8422   16.5514 C.3     1  UNL1        0.0335
      7 C          63.5845   88.5391   15.9366 C.3     1  UNL1        0.1377
      8 C          64.1957   87.4154   15.1531 C.3     1  UNL1        0.0613
      9 C          63.5579   86.1349   15.6045 C.3     1  UNL1        0.1290
     10 C          62.8347   84.9416   16.1548 C.3     1  UNL1        0.0305
     11 C          63.1474   83.5697   15.6350 C.3     1  UNL1        0.0025
     12 C          64.1832   83.3913   14.5648 C.3     1  UNL1        0.0002
     13 C          64.9063   84.5847   14.0145 C.3     1  UNL1        0.0025
     14 C          64.5936   85.9565   14.5343 C.3     1  UNL1        0.0305
     15 O          62.5525   86.4672   16.6670 O.3     1  UNL1       -0.2256
     16 O          62.5689   87.9531   16.8723 O.3     1  UNL1       -0.2251
     17 C          62.8808   89.6910   11.5239 C.3     1  UNL1        0.1163
     18 C          62.0602   88.8608   10.5818 C.ar    1  UNL1       -0.0026
     19 C          62.2212   87.3696   10.5614 C.ar    1  UNL1       -0.0026
     20 C          61.4006   86.5395    9.6193 C.ar    1  UNL1        0.0009
     21 C          60.4192   87.2006    8.6975 C.ar    1  UNL1        0.0140
     22 C          60.2583   88.6917    8.7178 C.ar    1  UNL1        0.0009
     23 C          61.0788   89.5219    9.6600 C.ar    1  UNL1       -0.0026
     24 C          59.5987   86.3703    7.7554 C.2     1  UNL1        0.0729
     25 O          60.2534   85.2979    6.9362 O.co2   1  UNL1       -0.5446
     26 O          58.1236   86.6127    7.6325 O.co2   1  UNL1       -0.5446
@<TRIPOS>UNITY_ATOM_ATTR
25 1
charge -1
@<TRIPOS>BOND
     1     6     7    1
     2     7     5    1
     3     5     1    1
     4     1     2    2
     5     1     3   am
     6     3    17    1
     7    17    18    1
     8    18    19   ar
     9    19    20   ar
    10    20    21   ar
    11    21    24    1
    12    24    25   ar
    13    24    26   ar
    14    21    22   ar
    15    22    23   ar
    16     7     8    1
    17     8     9    1
    18     9    10    1
    19    10    11    1
    20    11    12    1
    21    12    13    1
    22    13    14    1
    23     9    15    1
    24    15    16    1
    25    16     7    1
    26    23    18   ar
    27    14     9    1
    28     3     4    1
@<TRIPOS>MOLECULE
*****
 26 28 0 0 0
SMALL
GASTEIGER

@<TRIPOS>ATOM
      1 C          63.9744   82.9238   11.4631 C.2     1  UNL1        0.2252
      2 O          64.9616   82.9657   10.3346 O.2     1  UNL1       -0.2750
      3 N          62.6761   83.6669   11.3519 N.am    1  UNL1       -0.3004
      4 H          62.0282   83.6394   12.0926 H       1  UNL1        0.1497
      5 C          64.2855   82.1388   12.7030 C.3     1  UNL1        0.1154
      6 C          63.0560   80.8558   13.6366 C.3     1  UNL1        0.0335
      7 C          63.4195   82.2834   13.9190 C.3     1  UNL1        0.1377
      8 C          63.9639   83.6808   13.9472 C.3     1  UNL1        0.0613
      9 C          63.3584   84.3907   15.1218 C.3     1  UNL1        0.1290
     10 C          62.6757   84.9671   16.3266 C.3     1  UNL1        0.0305
     11 C          62.9421   86.3864   16.7322 C.3     1  UNL1        0.0025
     12 C          63.8912   87.2293   15.9329 C.3     1  UNL1        0.0002
     13 C          64.5738   86.6529   14.7280 C.3     1  UNL1        0.0025
     14 C          64.3074   85.2336   14.3225 C.3     1  UNL1        0.0305
     15 O          62.4396   83.4320   15.8195 O.3     1  UNL1       -0.2256
     16 O          62.4774   82.1295   15.0762 O.3     1  UNL1       -0.2251
     17 C          62.3651   84.4518   10.1120 C.3     1  UNL1        0.1163
     18 C          62.0968   85.9247   10.2045 C.ar    1  UNL1       -0.0026
     19 C          61.3163   86.6141    9.1249 C.ar    1  UNL1       -0.0026
     20 C          61.0481   88.0870    9.2173 C.ar    1  UNL1        0.0009
     21 C          61.5604   88.8705   10.3893 C.ar    1  UNL1        0.0140
     22 C          62.3409   88.1812   11.4688 C.ar    1  UNL1        0.0009
     23 C          62.6092   86.7082   11.3765 C.ar    1  UNL1       -0.0026
     24 C          61.2921   90.3435   10.4817 C.2     1  UNL1        0.0729
     25 O          62.4333   91.3167   10.4553 O.co2   1  UNL1       -0.5446
     26 O          59.8828   90.8431   10.6003 O.co2   1  UNL1       -0.5446
@<TRIPOS>UNITY_ATOM_ATTR
25 1
charge -1
@<TRIPOS>BOND
     1     6     7    1
     2     7     5    1
     3     5     1    1
     4     1     2    2
     5     1     3   am
     6     3    17    1
     7    17    18    1
     8    18    19   ar
     9    19    20   ar
    10    20    21   ar
    11    21    24    1
    12    24    25   ar
    13    24    26   ar
    14    21    22   ar
    15    22    23   ar
    16     7     8    1
    17     8     9    1
    18     9    10    1
    19    10    11    1
    20    11    12    1
    21    12    13    1
    22    13    14    1
    23     9    15    1
    24    15    16    1
    25    16     7    1
    26    23    18   ar
    27    14     9    1
    28     3     4    1
@<TRIPOS>MOLECULE
*****
 26 28 0 0 0
SMALL
GASTEIGER

@<TRIPOS>ATOM
      1 C          64.0291   83.7610   12.6706 C.2     1  UNL1        0.2252
      2 O          62.6473   83.1782   12.6937 O.2     1  UNL1       -0.2750
      3 N          64.7039   84.0397   11.3602 N.am    1  UNL1       -0.3004
      4 H          65.6109   84.4223   11.3450 H       1  UNL1        0.1497
      5 C          64.7364   84.0653   13.9580 C.3     1  UNL1        0.1154
      6 C          63.7823   83.0047   15.3703 C.3     1  UNL1        0.0335
      7 C          63.9499   84.4812   15.1656 C.3     1  UNL1        0.1377
      8 C          64.2820   85.8707   14.7085 C.3     1  UNL1        0.0613
      9 C          63.6656   86.8368   15.6764 C.3     1  UNL1        0.1290
     10 C          62.9953   87.6777   16.7221 C.3     1  UNL1        0.0305
     11 C          63.0775   89.1735   16.6477 C.3     1  UNL1        0.0025
     12 C          63.8301   89.8286   15.5277 C.3     1  UNL1        0.0002
     13 C          64.5004   88.9877   14.4820 C.3     1  UNL1        0.0025
     14 C          64.4182   87.4919   14.5563 C.3     1  UNL1        0.0305
     15 O          62.9527   86.0444   16.7317 O.3     1  UNL1       -0.2256
     16 O          63.1284   84.5884   16.4161 O.3     1  UNL1       -0.2251
     17 C          63.9966   83.7355   10.0729 C.3     1  UNL1        0.1163
     18 C          62.9234   84.6556    9.5712 C.ar    1  UNL1       -0.0026
     19 C          62.6858   84.7973    8.0969 C.ar    1  UNL1       -0.0026
     20 C          61.6126   85.7174    7.5952 C.ar    1  UNL1        0.0009
     21 C          60.7770   86.4957    8.5678 C.ar    1  UNL1        0.0140
     22 C          61.0146   86.3540   10.0420 C.ar    1  UNL1        0.0009
     23 C          62.0878   85.4339   10.5438 C.ar    1  UNL1       -0.0026
     24 C          59.7038   87.4158    8.0660 C.2     1  UNL1        0.0729
     25 O          58.3522   86.8694    7.7130 O.co2   1  UNL1       -0.5446
     26 O          59.9823   88.8822    7.9173 O.co2   1  UNL1       -0.5446
@<TRIPOS>UNITY_ATOM_ATTR
25 1
charge -1
@<TRIPOS>BOND
     1     6     7    1
     2     7     5    1
     3     5     1    1
     4     1     2    2
     5     1     3   am
     6     3    17    1
     7    17    18    1
     8    18    19   ar
     9    19    20   ar
    10    20    21   ar
    11    21    24    1
    12    24    25   ar
    13    24    26   ar
    14    21    22   ar
    15    22    23   ar
    16     7     8    1
    17     8     9    1
    18     9    10    1
    19    10    11    1
    20    11    12    1
    21    12    13    1
    22    13    14    1
    23     9    15    1
    24    15    16    1
    25    16     7    1
    26    23    18   ar
    27    14     9    1
    28     3     4    1
@<TRIPOS>MOLECULE
*****
 26 28 0 0 0
SMALL
GASTEIGER

@<TRIPOS>ATOM
      1 C          62.1710   89.2025   11.8493 C.2     1  UNL1        0.2252
      2 O          61.7403   89.7754   13.1669 O.2     1  UNL1       -0.2750
      3 N          63.0073   90.0227   10.9122 N.am    1  UNL1       -0.3004
      4 H          63.2900   89.6467   10.0474 H       1  UNL1        0.1497
      5 C          61.7656   87.8093   11.4687 C.3     1  UNL1        0.1154
      6 C          59.8765   88.4791   11.3585 C.3     1  UNL1        0.0335
      7 C          60.6821   87.5945   10.4539 C.3     1  UNL1        0.1377
      8 C          61.7143   86.7547    9.7615 C.3     1  UNL1        0.0613
      9 C          61.1003   86.2057    8.5078 C.3     1  UNL1        0.1290
     10 C          60.3553   85.7334    7.2946 C.3     1  UNL1        0.0305
     11 C          61.0338   84.8406    6.2983 C.3     1  UNL1        0.0025
     12 C          62.4573   84.4203    6.5152 C.3     1  UNL1        0.0002
     13 C          63.2022   84.8926    7.7284 C.3     1  UNL1        0.0025
     14 C          62.5237   85.7853    8.7247 C.3     1  UNL1        0.0305
     15 O          59.6886   86.7061    8.4254 O.3     1  UNL1       -0.2256
     16 O          59.4302   87.5645    9.6282 O.3     1  UNL1       -0.2251
     17 C          63.4127   91.4158   11.2928 C.3     1  UNL1        0.1163
     18 C          64.6050   91.6350   12.1761 C.ar    1  UNL1       -0.0026
     19 C          64.6530   91.0117   13.5397 C.ar    1  UNL1       -0.0026
     20 C          65.8454   91.2309   14.4230 C.ar    1  UNL1        0.0009
     21 C          66.9897   92.0734   13.9427 C.ar    1  UNL1        0.0140
     22 C          66.9417   92.6967   12.5793 C.ar    1  UNL1        0.0009
     23 C          65.7494   92.4775   11.6959 C.ar    1  UNL1       -0.0026
     24 C          68.1821   92.2926   14.8261 C.2     1  UNL1        0.0729
     25 O          68.0352   92.2154   16.3169 O.co2   1  UNL1       -0.5446
     26 O          69.5211   92.5889   14.2186 O.co2   1  UNL1       -0.5446
@<TRIPOS>UNITY_ATOM_ATTR
25 1
charge -1
@<TRIPOS>BOND
     1     6     7    1
     2     7     5    1
     3     5     1    1
     4     1     2    2
     5     1     3   am
     6     3    17    1
     7    17    18    1
     8    18    19   ar
     9    19    20   ar
    10    20    21   ar
    11    21    24    1
    12    24    25   ar
    13    24    26   ar
    14    21    22   ar
    15    22    23   ar
    16     7     8    1
    17     8     9    1
    18     9    10    1
    19    10    11    1
    20    11    12    1
    21    12    13    1
    22    13    14    1
    23     9    15    1
    24    15    16    1
    25    16     7    1
    26    23    18   ar
    27    14     9    1
    28     3     4    1
