@<TRIPOS>MOLECULE
*****
 28 32 0 0 0
SMALL
GASTEIGER

@<TRIPOS>ATOM
      1 C          62.9807   84.9141   15.8534 C.ar    1  UNL1        0.1845
      2 N          62.3151   84.9163   17.1976 N.ar    1  UNL1       -0.1274
      3 N          62.3005   86.3276   17.7053 N.ar    1  UNL1       -0.1315
      4 C          62.9572   87.1978   16.6750 C.ar    1  UNL1        0.1636
      5 N          63.3776   86.3242   15.5304 N.ar    1  UNL1       -0.2944
      6 C          64.0675   86.9255   14.3419 C.3     1  UNL1        0.1302
      7 C          64.3369   88.4004   14.2981 C.3     1  UNL1        0.1186
      8 N          63.9165   89.2740   15.4427 N.am    1  UNL1       -0.2670
      9 C          64.1860   90.7490   15.3987 C.2     1  UNL1        0.2494
     10 O          63.7656   91.6226   16.5433 O.2     1  UNL1       -0.2699
     11 C          63.2266   88.6727   16.6311 C.3     1  UNL1        0.1599
     12 C          62.3746   80.2185   13.5160 C.3     1  UNL1        0.0594
     13 C          62.9308   81.5545   13.9103 C.ar    1  UNL1        0.0887
     14 N          62.3236   82.5055   14.8987 N.ar    1  UNL1       -0.2396
     15 C          63.2094   83.7129   14.9847 C.ar    1  UNL1        0.1237
     16 C          64.3642   83.5082   14.0494 C.ar    1  UNL1        0.0588
     17 S          64.1920   82.1742   13.3854 S.2     1  UNL1       -0.0701
     18 C          64.8758   91.3503   14.2103 C.ar    1  UNL1        0.0536
     19 C          64.1339   91.5171   12.9174 C.ar    1  UNL1        0.0045
     20 C          64.8238   92.1184   11.7289 C.ar    1  UNL1        0.0006
     21 C          66.2556   92.5530   11.8333 C.ar    1  UNL1        0.0060
     22 C          66.9976   92.3862   13.1263 C.ar    1  UNL1        0.0006
     23 C          66.3078   91.7849   14.3147 C.ar    1  UNL1        0.0045
     24 C          66.9455   93.1543   10.6449 C.ar    1  UNL1        0.0295
     25 C          67.9382   92.4625    9.7584 C.ar    1  UNL1        0.0070
     26 C          68.3700   93.4336    8.6998 C.ar    1  UNL1        0.0075
     27 C          67.6442   94.7256    8.9321 C.ar    1  UNL1        0.0354
     28 S          66.7638   94.5530   10.1342 S.2     1  UNL1       -0.0864
@<TRIPOS>BOND
     1    12    13    1
     2    13    14   ar
     3    14    15   ar
     4    15     1    1
     5     1     2   ar
     6     2     3   ar
     7     3     4   ar
     8     4     5   ar
     9     5     6    1
    10     6     7    1
    11     7     8    1
    12     8     9   am
    13     9    10    2
    14     9    18    1
    15    18    19   ar
    16    19    20   ar
    17    20    21   ar
    18    21    24    1
    19    24    25   ar
    20    25    26   ar
    21    26    27   ar
    22    27    28   ar
    23    21    22   ar
    24    22    23   ar
    25     8    11    1
    26    15    16   ar
    27    16    17   ar
    28    17    13   ar
    29     5     1   ar
    30    23    18   ar
    31    11     4    1
    32    28    24   ar
