@<TRIPOS>MOLECULE
*****
 57 61 0 0 0
SMALL
GASTEIGER

@<TRIPOS>ATOM
      1 C          61.7155   86.4449   11.7045 C.3     1  UNL1        0.1056
      2 C          60.7325   87.5635   11.5238 C.3     1  UNL1        0.1644
      3 O          59.8899   88.1794   12.6011 O.3     1  UNL1       -0.3325
      4 C          59.0562   89.2590   11.9772 C.3     1  UNL1        0.1874
      5 C          58.5316   89.4414   13.3706 C.3     1  UNL1        0.0612
      6 C          58.1129   90.3768   11.6445 C.3     1  UNL1        0.0612
      7 O          59.3836   89.3104   10.5142 O.3     1  UNL1       -0.3325
      8 C          60.4197   88.2624   10.2340 C.3     1  UNL1        0.1645
      9 C          61.0348   87.9656    8.8985 C.3     1  UNL1        0.1087
     10 N          60.6317   88.7625    7.6933 N.am    1  UNL1       -0.2695
     11 C          59.2509   88.6173    7.1257 C.2     1  UNL1        0.4020
     12 O          58.2731   87.6751    7.7632 O.2     1  UNL1       -0.2264
     13 H          61.2734   89.3808    7.2749 H       1  UNL1        0.1528
     14 O          58.8478   89.4142    5.9205 O.3     1  UNL1       -0.4291
     15 C          59.0396   90.9018    5.9065 C.3     1  UNL1        0.2447
     16 C          59.8180   91.5472    4.7985 C.ar    1  UNL1        0.0714
     17 C          61.2444   91.2559    4.4372 C.ar    1  UNL1        0.1053
     18 N          61.6145   92.1260    3.2727 N.ar    1  UNL1       -0.2350
     19 C          60.4169   92.9550    2.9143 C.ar    1  UNL1        0.1343
     20 S          59.3065   92.5973    3.8573 S.2     1  UNL1       -0.0652
     21 C          62.0530   86.8719    8.7682 C.3     1  UNL1        0.0486
     22 C          61.9119   85.8405    7.6882 C.ar    1  UNL1       -0.0204
     23 C          60.5481   85.3971    7.2482 C.ar    1  UNL1       -0.0042
     24 C          60.4071   84.3657    6.1682 C.ar    1  UNL1       -0.0003
     25 C          61.6297   83.7779    5.5282 C.ar    1  UNL1       -0.0000
     26 C          62.9934   84.2213    5.9682 C.ar    1  UNL1       -0.0003
     27 C          63.1345   85.2527    7.0482 C.ar    1  UNL1       -0.0042
     28 C          63.2366   87.9061   13.2215 C.2     1  UNL1        0.2404
     29 O          62.5966   89.1454   12.6696 O.2     1  UNL1       -0.2733
     30 N          62.7961   86.5559   12.7390 N.am    1  UNL1       -0.3018
     31 H          63.2162   85.7425   13.1012 H       1  UNL1        0.1495
     32 C          64.3171   88.0171   14.2560 C.3     1  UNL1        0.1496
     33 N          65.5478   91.5981   15.4443 N.am    1  UNL1       -0.2567
     34 C          65.1552   92.6649   16.4230 C.3     1  UNL1        0.1168
     35 C          64.7362   90.3410   15.3395 C.2     1  UNL1        0.3046
     36 O          63.5319   90.1508   16.2133 O.2     1  UNL1       -0.2526
     37 N          65.1288   89.2742   14.3609 N.am    1  UNL1       -0.2824
     38 H          65.9192   89.3991   13.7874 H       1  UNL1        0.1514
     39 C          66.7521   91.7884   14.5705 C.3     1  UNL1        0.1413
     40 C          67.0633   92.8315   10.8449 C.ar    1  UNL1        0.0875
     41 N          67.6862   92.4805   12.1635 N.ar    1  UNL1       -0.2453
     42 C          66.5813   92.1835   13.1337 C.ar    1  UNL1        0.0858
     43 C          65.2756   92.3510   12.4146 C.ar    1  UNL1        0.0530
     44 S          65.5735   92.7515   11.0001 S.2     1  UNL1       -0.0705
     45 C          68.7085   92.1999    8.9358 C.3     1  UNL1        0.0069
     46 C          67.8008   93.1982    9.5913 C.3     1  UNL1        0.0465
     47 C          67.6306   94.5631    8.9930 C.3     1  UNL1        0.0069
     48 C          64.5860   86.8710   15.1856 C.3     1  UNL1        0.0270
     49 C          63.7132   86.6589   16.3869 C.3     1  UNL1        0.0022
     50 C          65.7278   85.9370   14.9139 C.3     1  UNL1        0.0022
     51 C          61.6180   85.2155   10.8508 C.3     1  UNL1        0.0485
     52 C          62.5380   84.0565   11.0969 C.ar    1  UNL1       -0.0204
     53 C          63.6302   83.7448   10.1173 C.ar    1  UNL1       -0.0042
     54 C          64.5501   82.5859   10.3634 C.ar    1  UNL1       -0.0003
     55 C          64.3778   81.7386   11.5891 C.ar    1  UNL1       -0.0000
     56 C          63.2855   82.0503   12.5688 C.ar    1  UNL1       -0.0003
     57 C          62.3656   83.2092   12.3226 C.ar    1  UNL1       -0.0042
@<TRIPOS>BOND
     1    45    46    1
     2    46    47    1
     3    46    40    1
     4    40    41   ar
     5    41    42   ar
     6    42    39    1
     7    39    33    1
     8    33    34    1
     9    33    35   am
    10    35    36    2
    11    35    37   am
    12    32    37    1
    13    32    28    1
    14    28    29    2
    15    28    30   am
    16    30     1    1
    17     1    51    1
    18    51    52    1
    19    52    53   ar
    20    53    54   ar
    21    54    55   ar
    22    55    56   ar
    23    56    57   ar
    24     1     2    1
    25     2     3    1
    26     3     4    1
    27     4     5    1
    28     4     6    1
    29     4     7    1
    30     8     7    1
    31     8     9    1
    32     9    21    1
    33    21    22    1
    34    22    23   ar
    35    23    24   ar
    36    24    25   ar
    37    25    26   ar
    38    26    27   ar
    39     9    10    1
    40    10    11   am
    41    11    12    2
    42    11    14    1
    43    14    15    1
    44    15    16    1
    45    16    17   ar
    46    17    18   ar
    47    18    19   ar
    48    19    20   ar
    49    32    48    1
    50    48    49    1
    51    48    50    1
    52    42    43   ar
    53    43    44   ar
    54    44    40   ar
    55    57    52   ar
    56     8     2    1
    57    27    22   ar
    58    20    16   ar
    59    37    38    1
    60    30    31    1
    61    10    13    1
@<TRIPOS>MOLECULE
*****
 57 61 0 0 0
SMALL
GASTEIGER

@<TRIPOS>ATOM
      1 C          63.2725   85.1831   13.5395 C.3     1  UNL1        0.1056
      2 C          63.3606   84.7265   12.1133 C.3     1  UNL1        0.1644
      3 O          64.1944   83.5894   11.6015 O.3     1  UNL1       -0.3325
      4 C          63.9795   83.4870   10.1205 C.3     1  UNL1        0.1874
      5 C          64.9433   82.3418   10.2187 C.3     1  UNL1        0.0612
      6 C          63.9661   83.1451    8.6601 C.3     1  UNL1        0.0612
      7 O          63.0129   84.5608    9.7170 O.3     1  UNL1       -0.3325
      8 C          62.6304   85.3268   10.9487 C.3     1  UNL1        0.1645
      9 C          61.6839   86.4891   11.0056 C.3     1  UNL1        0.1087
     10 N          62.1066   87.7690   11.6639 N.am    1  UNL1       -0.2695
     11 C          62.7618   88.8481   10.8540 C.2     1  UNL1        0.4020
     12 O          62.9945   88.6474    9.3857 O.2     1  UNL1       -0.2264
     13 H          61.9539   87.9007   12.6275 H       1  UNL1        0.1528
     14 O          63.1845   90.1280   11.5123 O.3     1  UNL1       -0.4291
     15 C          62.1494   91.0938   12.0082 C.3     1  UNL1        0.2447
     16 C          60.7138   90.6701   12.1053 C.ar    1  UNL1        0.0714
     17 C          59.5551   91.3140   11.4033 C.ar    1  UNL1        0.1053
     18 N          58.3100   90.5700   11.7856 N.ar    1  UNL1       -0.2350
     19 C          58.6991   89.4663   12.7239 C.ar    1  UNL1        0.1343
     20 S          60.1848   89.5282   12.9215 S.2     1  UNL1       -0.0652
     21 C          60.3148   86.3715   10.4043 C.3     1  UNL1        0.0486
     22 C          59.9786   87.1247    9.1514 C.ar    1  UNL1       -0.0204
     23 C          59.8746   88.6208    9.1808 C.ar    1  UNL1       -0.0042
     24 C          59.5385   89.3739    7.9278 C.ar    1  UNL1       -0.0003
     25 C          59.3064   88.6309    6.6456 C.ar    1  UNL1       -0.0000
     26 C          59.4105   87.1348    6.6162 C.ar    1  UNL1       -0.0003
     27 C          59.7466   86.3817    7.8692 C.ar    1  UNL1       -0.0042
     28 C          64.2479   87.3659   14.5564 C.2     1  UNL1        0.2404
     29 O          65.4932   86.6271   14.9477 O.2     1  UNL1       -0.2733
     30 N          63.1374   86.6439   13.8522 N.am    1  UNL1       -0.3018
     31 H          62.3201   87.1288   13.5954 H       1  UNL1        0.1495
     32 C          64.1128   88.8267   14.8692 C.3     1  UNL1        0.1496
     33 N          66.2168   91.8285   13.3482 N.am    1  UNL1       -0.2567
     34 C          67.2984   92.7806   13.7649 C.3     1  UNL1        0.1168
     35 C          65.7056   90.8037   14.3170 C.2     1  UNL1        0.3046
     36 O          66.2759   90.7311   15.7025 O.2     1  UNL1       -0.2526
     37 N          64.6241   89.8515   13.9004 N.am    1  UNL1       -0.2824
     38 H          64.2497   89.8992   12.9911 H       1  UNL1        0.1514
     39 C          65.6465   91.9011   11.9628 C.3     1  UNL1        0.1413
     40 C          66.5598   94.8217    9.5750 C.ar    1  UNL1        0.0875
     41 N          65.6709   94.2107   10.6175 N.ar    1  UNL1       -0.2453
     42 C          66.2232   92.8597   10.9636 C.ar    1  UNL1        0.0858
     43 C          67.4533   92.6356   10.1351 C.ar    1  UNL1        0.0530
     44 S          67.6614   93.8482    9.2769 S.2     1  UNL1       -0.0705
     45 C          65.0460   96.8546    9.0046 C.3     1  UNL1        0.0069
     46 C          66.3789   96.1694    8.9419 C.3     1  UNL1        0.0465
     47 C          67.5308   96.8318    8.2461 C.3     1  UNL1        0.0069
     48 C          63.4666   89.2627   16.1506 C.3     1  UNL1        0.0270
     49 C          63.0592   88.2412   17.1707 C.3     1  UNL1        0.0022
     50 C          63.2277   90.7203   16.4120 C.3     1  UNL1        0.0022
     51 C          63.3194   84.1790   14.6527 C.3     1  UNL1        0.0485
     52 C          62.9421   82.7509   14.3911 C.ar    1  UNL1       -0.0204
     53 C          61.5005   82.3380   14.4238 C.ar    1  UNL1       -0.0042
     54 C          61.1233   80.9100   14.1622 C.ar    1  UNL1       -0.0003
     55 C          62.1877   79.8949   13.8679 C.ar    1  UNL1       -0.0000
     56 C          63.6293   80.3078   13.8352 C.ar    1  UNL1       -0.0003
     57 C          64.0066   81.7358   14.0968 C.ar    1  UNL1       -0.0042
@<TRIPOS>BOND
     1    45    46    1
     2    46    47    1
     3    46    40    1
     4    40    41   ar
     5    41    42   ar
     6    42    39    1
     7    39    33    1
     8    33    34    1
     9    33    35   am
    10    35    36    2
    11    35    37   am
    12    32    37    1
    13    32    28    1
    14    28    29    2
    15    28    30   am
    16    30     1    1
    17     1    51    1
    18    51    52    1
    19    52    53   ar
    20    53    54   ar
    21    54    55   ar
    22    55    56   ar
    23    56    57   ar
    24     1     2    1
    25     2     3    1
    26     3     4    1
    27     4     5    1
    28     4     6    1
    29     4     7    1
    30     8     7    1
    31     8     9    1
    32     9    21    1
    33    21    22    1
    34    22    23   ar
    35    23    24   ar
    36    24    25   ar
    37    25    26   ar
    38    26    27   ar
    39     9    10    1
    40    10    11   am
    41    11    12    2
    42    11    14    1
    43    14    15    1
    44    15    16    1
    45    16    17   ar
    46    17    18   ar
    47    18    19   ar
    48    19    20   ar
    49    32    48    1
    50    48    49    1
    51    48    50    1
    52    42    43   ar
    53    43    44   ar
    54    44    40   ar
    55    57    52   ar
    56     8     2    1
    57    27    22   ar
    58    20    16   ar
    59    37    38    1
    60    30    31    1
    61    10    13    1
@<TRIPOS>MOLECULE
*****
 57 61 0 0 0
SMALL
GASTEIGER

@<TRIPOS>ATOM
      1 C          63.3625   89.2462   13.2773 C.3     1  UNL1        0.1056
      2 C          61.9224   89.3861   12.8817 C.3     1  UNL1        0.1644
      3 O          60.7371   89.1495   13.7700 O.3     1  UNL1       -0.3325
      4 C          59.4968   89.4043   12.9657 C.3     1  UNL1        0.1874
      5 C          58.7878   89.0479   14.2386 C.3     1  UNL1        0.0612
      6 C          58.1084   89.5846   12.4275 C.3     1  UNL1        0.0612
      7 O          59.9156   89.7985   11.5803 O.3     1  UNL1       -0.3325
      8 C          61.4148   89.7872   11.5284 C.3     1  UNL1        0.1645
      9 C          62.2581   90.1189   10.3331 C.3     1  UNL1        0.1087
     10 N          63.7195   90.4104   10.5039 N.am    1  UNL1       -0.2695
     11 C          64.2305   91.8098   10.3295 C.2     1  UNL1        0.4020
     12 O          63.2800   92.9178    9.9843 O.2     1  UNL1       -0.2264
     13 H          64.3434   89.6833   10.7304 H       1  UNL1        0.1528
     14 O          65.6920   92.1014   10.5003 O.3     1  UNL1       -0.4291
     15 C          66.1319   93.4051   11.0975 C.3     1  UNL1        0.2447
     16 C          66.6195   94.5107   10.2087 C.ar    1  UNL1        0.0714
     17 C          67.2454   94.3432    8.8558 C.ar    1  UNL1        0.1053
     18 N          67.5796   95.7068    8.3277 N.ar    1  UNL1       -0.2350
     19 C          67.1603   96.7170    9.3542 C.ar    1  UNL1        0.1343
     20 S          66.5669   95.9778   10.5167 S.2     1  UNL1       -0.0652
     21 C          61.6400   90.1589    8.9670 C.3     1  UNL1        0.0486
     22 C          60.6640   89.0973    8.5539 C.ar    1  UNL1       -0.0204
     23 C          59.7175   89.3497    7.4180 C.ar    1  UNL1       -0.0042
     24 C          58.7416   88.2880    7.0050 C.ar    1  UNL1       -0.0003
     25 C          58.7122   86.9741    7.7280 C.ar    1  UNL1       -0.0000
     26 C          59.6587   86.7218    8.8640 C.ar    1  UNL1       -0.0003
     27 C          60.6346   87.7834    9.2769 C.ar    1  UNL1       -0.0042
     28 C          63.4621   86.6507   13.3363 C.2     1  UNL1        0.2404
     29 O          62.5981   86.5897   12.1117 O.2     1  UNL1       -0.2733
     30 N          63.8443   87.9790   13.9192 N.am    1  UNL1       -0.3018
     31 H          64.4114   88.0190   14.7230 H       1  UNL1        0.1495
     32 C          63.9438   85.3834   13.9782 C.3     1  UNL1        0.1496
     33 N          61.9825   81.9591   13.5567 N.am    1  UNL1       -0.2567
     34 C          60.8829   81.1920   14.2293 C.3     1  UNL1        0.1168
     35 C          62.4134   83.2877   14.1037 C.2     1  UNL1        0.3046
     36 O          61.7446   83.8492   15.3234 O.2     1  UNL1       -0.2526
     37 N          63.5130   84.0548   13.4312 N.am    1  UNL1       -0.2824
     38 H          63.9519   83.6863   12.6307 H       1  UNL1        0.1514
     39 C          62.6513   81.3976   12.3371 C.3     1  UNL1        0.1413
     40 C          63.3571   84.0235    9.5672 C.ar    1  UNL1        0.0875
     41 N          62.4113   83.3185   10.4939 N.ar    1  UNL1       -0.2453
     42 C          63.1996   82.3213   11.2901 C.ar    1  UNL1        0.0858
     43 C          64.6326   82.4098   10.8557 C.ar    1  UNL1        0.0530
     44 S          64.7299   83.4618    9.7908 S.2     1  UNL1       -0.0705
     45 C          63.2387   86.5401    8.9330 C.3     1  UNL1        0.0069
     46 C          62.9938   85.1008    8.5888 C.3     1  UNL1        0.0465
     47 C          62.3857   84.7388    7.2662 C.3     1  UNL1        0.0069
     48 C          64.8564   85.4448   15.1670 C.3     1  UNL1        0.0270
     49 C          64.2860   85.6331   16.5415 C.3     1  UNL1        0.0022
     50 C          66.3394   85.3178   14.9814 C.3     1  UNL1        0.0022
     51 C          64.3209   90.3735   13.0310 C.3     1  UNL1        0.0485
     52 C          64.9509   91.0890   14.1891 C.ar    1  UNL1       -0.0204
     53 C          66.3658   91.5768   14.0894 C.ar    1  UNL1       -0.0042
     54 C          66.9958   92.2922   15.2476 C.ar    1  UNL1       -0.0003
     55 C          66.2108   92.5198   16.5053 C.ar    1  UNL1       -0.0000
     56 C          64.7959   92.0320   16.6050 C.ar    1  UNL1       -0.0003
     57 C          64.1659   91.3166   15.4469 C.ar    1  UNL1       -0.0042
@<TRIPOS>BOND
     1    45    46    1
     2    46    47    1
     3    46    40    1
     4    40    41   ar
     5    41    42   ar
     6    42    39    1
     7    39    33    1
     8    33    34    1
     9    33    35   am
    10    35    36    2
    11    35    37   am
    12    32    37    1
    13    32    28    1
    14    28    29    2
    15    28    30   am
    16    30     1    1
    17     1    51    1
    18    51    52    1
    19    52    53   ar
    20    53    54   ar
    21    54    55   ar
    22    55    56   ar
    23    56    57   ar
    24     1     2    1
    25     2     3    1
    26     3     4    1
    27     4     5    1
    28     4     6    1
    29     4     7    1
    30     8     7    1
    31     8     9    1
    32     9    21    1
    33    21    22    1
    34    22    23   ar
    35    23    24   ar
    36    24    25   ar
    37    25    26   ar
    38    26    27   ar
    39     9    10    1
    40    10    11   am
    41    11    12    2
    42    11    14    1
    43    14    15    1
    44    15    16    1
    45    16    17   ar
    46    17    18   ar
    47    18    19   ar
    48    19    20   ar
    49    32    48    1
    50    48    49    1
    51    48    50    1
    52    42    43   ar
    53    43    44   ar
    54    44    40   ar
    55    57    52   ar
    56     8     2    1
    57    27    22   ar
    58    20    16   ar
    59    37    38    1
    60    30    31    1
    61    10    13    1
@<TRIPOS>MOLECULE
*****
 57 61 0 0 0
SMALL
GASTEIGER

@<TRIPOS>ATOM
      1 C          63.3029   88.0362   12.7215 C.3     1  UNL1        0.1056
      2 C          62.3015   89.1377   12.5369 C.3     1  UNL1        0.1644
      3 O          60.8655   88.9661   12.1392 O.3     1  UNL1       -0.3325
      4 C          60.2368   90.3265   12.0741 C.3     1  UNL1        0.1874
      5 C          59.0039   89.5653   11.6860 C.3     1  UNL1        0.0612
      6 C          59.3505   91.5277   11.9279 C.3     1  UNL1        0.0612
      7 O          61.2844   91.3388   12.4316 O.3     1  UNL1       -0.3325
      8 C          62.5606   90.6041   12.7176 C.3     1  UNL1        0.1645
      9 C          63.8663   91.2265   13.1146 C.3     1  UNL1        0.1087
     10 N          64.6874   91.9608   12.0966 N.am    1  UNL1       -0.2695
     11 C          64.4205   91.7634   10.6338 C.2     1  UNL1        0.4020
     12 O          63.3324   90.8315   10.1891 O.2     1  UNL1       -0.2264
     13 H          65.4016   92.5724   12.3885 H       1  UNL1        0.1528
     14 O          65.2416   92.4978    9.6157 O.3     1  UNL1       -0.4291
     15 C          66.5752   93.0684    9.9978 C.3     1  UNL1        0.2447
     16 C          66.7561   94.5546   10.0910 C.ar    1  UNL1        0.0714
     17 C          67.5419   95.4084    9.1404 C.ar    1  UNL1        0.1053
     18 N          67.4545   96.8293    9.6131 N.ar    1  UNL1       -0.2350
     19 C          66.6148   96.8536   10.8557 C.ar    1  UNL1        0.1343
     20 S          66.1831   95.4478   11.1511 S.2     1  UNL1       -0.0652
     21 C          64.3510   91.1145   14.5298 C.3     1  UNL1        0.0486
     22 C          65.7082   91.6342   14.9011 C.ar    1  UNL1       -0.0204
     23 C          66.9006   91.2854   14.0605 C.ar    1  UNL1       -0.0042
     24 C          68.2578   91.8051   14.4319 C.ar    1  UNL1       -0.0003
     25 C          68.4226   92.6735   15.6437 C.ar    1  UNL1       -0.0000
     26 C          67.2302   93.0223   16.4843 C.ar    1  UNL1       -0.0003
     27 C          65.8729   92.5026   16.1129 C.ar    1  UNL1       -0.0042
     28 C          62.6378   85.6160   12.0506 C.2     1  UNL1        0.2404
     29 O          61.8698   85.4721   13.3310 O.2     1  UNL1       -0.2733
     30 N          63.3544   86.8981   11.7458 N.am    1  UNL1       -0.3018
     31 H          63.8584   86.9925   10.9054 H       1  UNL1        0.1495
     32 C          62.6892   84.4778   11.0749 C.3     1  UNL1        0.1496
     33 N          62.1266   84.6145    7.1487 N.am    1  UNL1       -0.2567
     34 C          62.9264   84.5077    5.8842 C.3     1  UNL1        0.1168
     35 C          62.8078   84.4927    8.4796 C.2     1  UNL1        0.3046
     36 O          64.2888   84.2642    8.5459 O.2     1  UNL1       -0.2526
     37 N          62.0080   84.5995    9.7440 N.am    1  UNL1       -0.2824
     38 H          61.0360   84.7495    9.7004 H       1  UNL1        0.1514
     39 C          60.6456   84.8430    7.0823 C.3     1  UNL1        0.1413
     40 C          59.3464   88.4930    6.8481 C.ar    1  UNL1        0.0875
     41 N          59.9432   87.2715    6.2142 N.ar    1  UNL1       -0.2453
     42 C          60.0902   86.2227    7.2764 C.ar    1  UNL1        0.0858
     43 C          59.5842   86.7959    8.5669 C.ar    1  UNL1        0.0530
     44 S          59.1245   88.1990    8.3023 S.2     1  UNL1       -0.0705
     45 C          57.6005   90.2181    5.9962 C.3     1  UNL1        0.0069
     46 C          59.0274   89.7820    6.1505 C.3     1  UNL1        0.0465
     47 C          60.1353   90.6348    5.6073 C.3     1  UNL1        0.0069
     48 C          63.4218   83.2180   11.4301 C.3     1  UNL1        0.0270
     49 C          63.0423   81.9209   10.7793 C.3     1  UNL1        0.0022
     50 C          64.5338   83.2553   12.4360 C.3     1  UNL1        0.0022
     51 C          64.2529   88.0729   13.8818 C.3     1  UNL1        0.0485
     52 C          63.8340   87.5200   15.2119 C.ar    1  UNL1       -0.0204
     53 C          63.2413   88.4278   16.2484 C.ar    1  UNL1       -0.0042
     54 C          62.8224   87.8749   17.5784 C.ar    1  UNL1       -0.0003
     55 C          62.9963   86.4142   17.8718 C.ar    1  UNL1       -0.0000
     56 C          63.5891   85.5064   16.8352 C.ar    1  UNL1       -0.0003
     57 C          64.0079   86.0593   15.5052 C.ar    1  UNL1       -0.0042
@<TRIPOS>BOND
     1    45    46    1
     2    46    47    1
     3    46    40    1
     4    40    41   ar
     5    41    42   ar
     6    42    39    1
     7    39    33    1
     8    33    34    1
     9    33    35   am
    10    35    36    2
    11    35    37   am
    12    32    37    1
    13    32    28    1
    14    28    29    2
    15    28    30   am
    16    30     1    1
    17     1    51    1
    18    51    52    1
    19    52    53   ar
    20    53    54   ar
    21    54    55   ar
    22    55    56   ar
    23    56    57   ar
    24     1     2    1
    25     2     3    1
    26     3     4    1
    27     4     5    1
    28     4     6    1
    29     4     7    1
    30     8     7    1
    31     8     9    1
    32     9    21    1
    33    21    22    1
    34    22    23   ar
    35    23    24   ar
    36    24    25   ar
    37    25    26   ar
    38    26    27   ar
    39     9    10    1
    40    10    11   am
    41    11    12    2
    42    11    14    1
    43    14    15    1
    44    15    16    1
    45    16    17   ar
    46    17    18   ar
    47    18    19   ar
    48    19    20   ar
    49    32    48    1
    50    48    49    1
    51    48    50    1
    52    42    43   ar
    53    43    44   ar
    54    44    40   ar
    55    57    52   ar
    56     8     2    1
    57    27    22   ar
    58    20    16   ar
    59    37    38    1
    60    30    31    1
    61    10    13    1
@<TRIPOS>MOLECULE
*****
 57 61 0 0 0
SMALL
GASTEIGER

@<TRIPOS>ATOM
      1 C          62.6184   86.1164   10.3434 C.3     1  UNL1        0.1056
      2 C          61.6264   86.9724    9.6130 C.3     1  UNL1        0.1644
      3 O          60.6059   86.4913    8.6246 O.3     1  UNL1       -0.3325
      4 C          59.8295   87.6813    8.1436 C.3     1  UNL1        0.1874
      5 C          59.0943   86.6694    7.3157 C.3     1  UNL1        0.0612
      6 C          58.8996   88.6597    7.4896 C.3     1  UNL1        0.0612
      7 O          60.3703   88.8978    8.8348 O.3     1  UNL1       -0.3325
      8 C          61.4809   88.4596    9.7430 C.3     1  UNL1        0.1645
      9 C          62.3018   89.3521   10.6261 C.3     1  UNL1        0.1087
     10 N          63.4416   90.1369   10.0474 N.am    1  UNL1       -0.2695
     11 C          63.8572   91.4324   10.6789 C.2     1  UNL1        0.4020
     12 O          63.1330   91.9431   11.8892 O.2     1  UNL1       -0.2264
     13 H          63.9168   89.8017    9.2530 H       1  UNL1        0.1528
     14 O          64.9970   92.2172   10.1002 O.3     1  UNL1       -0.4291
     15 C          65.5732   93.3746   10.8607 C.3     1  UNL1        0.2447
     16 C          66.3022   94.4634   10.1307 C.ar    1  UNL1        0.0714
     17 C          67.2545   94.2739    8.9873 C.ar    1  UNL1        0.1053
     18 N          67.7477   95.6263    8.5659 N.ar    1  UNL1       -0.2350
     19 C          67.1003   96.6517    9.4487 C.ar    1  UNL1        0.1343
     20 S          66.2069   95.9330   10.4158 S.2     1  UNL1       -0.0652
     21 C          61.9828   89.4597   12.0878 C.3     1  UNL1        0.0486
     22 C          60.5802   89.2315   12.5682 C.ar    1  UNL1       -0.0204
     23 C          59.4431   89.2315   11.5900 C.ar    1  UNL1       -0.0042
     24 C          58.0405   89.0033   12.0704 C.ar    1  UNL1       -0.0003
     25 C          57.7752   88.7751   13.5290 C.ar    1  UNL1       -0.0000
     26 C          58.9123   88.7750   14.5072 C.ar    1  UNL1       -0.0003
     27 C          60.3149   89.0032   14.0267 C.ar    1  UNL1       -0.0042
     28 C          63.0879   86.2383   12.8958 C.2     1  UNL1        0.2404
     29 O          62.0085   85.2264   13.1427 O.2     1  UNL1       -0.2733
     30 N          63.3929   86.6833   11.4961 N.am    1  UNL1       -0.3018
     31 H          64.1014   87.3474   11.3341 H       1  UNL1        0.1495
     32 C          63.8624   86.8051   14.0486 C.3     1  UNL1        0.1496
     33 N          63.7951   90.4544   15.6072 N.am    1  UNL1       -0.2567
     34 C          63.4101   91.1333   16.8881 C.3     1  UNL1        0.1168
     35 C          63.6363   88.9692   15.4683 C.2     1  UNL1        0.3046
     36 O          63.0923   88.1631   16.6104 O.2     1  UNL1       -0.2526
     37 N          64.0213   88.2903   14.1874 N.am    1  UNL1       -0.2824
     38 H          64.3782   88.8193   13.4379 H       1  UNL1        0.1514
     39 C          64.3390   91.2605   14.4651 C.3     1  UNL1        0.1413
     40 C          67.9399   92.5283   15.1664 C.ar    1  UNL1        0.0875
     41 N          66.5325   92.2668   15.6145 N.ar    1  UNL1       -0.2453
     42 C          65.7805   91.6752   14.4593 C.ar    1  UNL1        0.0858
     43 C          66.7232   91.5710   13.2971 C.ar    1  UNL1        0.0530
     44 S          68.0577   92.0983   13.7341 S.2     1  UNL1       -0.0705
     45 C          69.9436   92.2177   16.7908 C.3     1  UNL1        0.0069
     46 C          69.0368   93.1166   16.0035 C.3     1  UNL1        0.0465
     47 C          69.2269   94.6036   16.0532 C.3     1  UNL1        0.0069
     48 C          64.4779   85.8869   15.0624 C.3     1  UNL1        0.0270
     49 C          65.9175   85.4853   14.9343 C.3     1  UNL1        0.0022
     50 C          63.6540   85.3704   16.2045 C.3     1  UNL1        0.0022
     51 C          62.8359   84.6937    9.9210 C.3     1  UNL1        0.0485
     52 C          63.1857   83.6529   10.9430 C.ar    1  UNL1       -0.0204
     53 C          62.1079   82.8011   11.5452 C.ar    1  UNL1       -0.0042
     54 C          62.4578   81.7604   12.5672 C.ar    1  UNL1       -0.0003
     55 C          63.8854   81.5716   12.9871 C.ar    1  UNL1       -0.0000
     56 C          64.9632   82.4235   12.3849 C.ar    1  UNL1       -0.0003
     57 C          64.6133   83.4641   11.3629 C.ar    1  UNL1       -0.0042
@<TRIPOS>BOND
     1    45    46    1
     2    46    47    1
     3    46    40    1
     4    40    41   ar
     5    41    42   ar
     6    42    39    1
     7    39    33    1
     8    33    34    1
     9    33    35   am
    10    35    36    2
    11    35    37   am
    12    32    37    1
    13    32    28    1
    14    28    29    2
    15    28    30   am
    16    30     1    1
    17     1    51    1
    18    51    52    1
    19    52    53   ar
    20    53    54   ar
    21    54    55   ar
    22    55    56   ar
    23    56    57   ar
    24     1     2    1
    25     2     3    1
    26     3     4    1
    27     4     5    1
    28     4     6    1
    29     4     7    1
    30     8     7    1
    31     8     9    1
    32     9    21    1
    33    21    22    1
    34    22    23   ar
    35    23    24   ar
    36    24    25   ar
    37    25    26   ar
    38    26    27   ar
    39     9    10    1
    40    10    11   am
    41    11    12    2
    42    11    14    1
    43    14    15    1
    44    15    16    1
    45    16    17   ar
    46    17    18   ar
    47    18    19   ar
    48    19    20   ar
    49    32    48    1
    50    48    49    1
    51    48    50    1
    52    42    43   ar
    53    43    44   ar
    54    44    40   ar
    55    57    52   ar
    56     8     2    1
    57    27    22   ar
    58    20    16   ar
    59    37    38    1
    60    30    31    1
    61    10    13    1
@<TRIPOS>MOLECULE
*****
 57 61 0 0 0
SMALL
GASTEIGER

@<TRIPOS>ATOM
      1 C          62.4995   87.4203   12.3902 C.3     1  UNL1        0.1056
      2 C          61.1139   87.9411   12.1474 C.3     1  UNL1        0.1644
      3 O          60.0801   88.2201   13.1978 O.3     1  UNL1       -0.3325
      4 C          58.8462   88.7257   12.5110 C.3     1  UNL1        0.1874
      5 C          58.2929   88.8013   13.9032 C.3     1  UNL1        0.0612
      6 C          57.4965   89.2471   12.1153 C.3     1  UNL1        0.0612
      7 O          59.1172   88.7591   11.0361 O.3     1  UNL1       -0.3325
      8 C          60.5189   88.2741   10.8113 C.3     1  UNL1        0.1645
      9 C          61.2048   88.1450    9.4836 C.3     1  UNL1        0.1087
     10 N          60.9359   89.1466    8.3999 N.am    1  UNL1       -0.2695
     11 C          59.6782   89.0537    7.5880 C.2     1  UNL1        0.4020
     12 O          58.6892   87.9590    7.8598 O.2     1  UNL1       -0.2264
     13 H          61.5850   89.8650    8.2215 H       1  UNL1        0.1528
     14 O          59.4093   90.0553    6.5042 O.3     1  UNL1       -0.4291
     15 C          60.5168   90.4848    5.5883 C.3     1  UNL1        0.2447
     16 C          60.2405   91.4617    4.4841 C.ar    1  UNL1        0.0714
     17 C          58.9057   92.0573    4.1473 C.ar    1  UNL1        0.1053
     18 N          59.0908   92.9782    2.9779 N.ar    1  UNL1       -0.2350
     19 C          60.5401   92.9519    2.5920 C.ar    1  UNL1        0.1343
     20 S          61.2507   92.0146    3.5229 S.2     1  UNL1       -0.0652
     21 C          62.1597   87.0142    9.2397 C.3     1  UNL1        0.0486
     22 C          61.8898   86.0282    8.1420 C.ar    1  UNL1       -0.0204
     23 C          63.0262   85.2821    7.5079 C.ar    1  UNL1       -0.0042
     24 C          62.7562   84.2960    6.4102 C.ar    1  UNL1       -0.0003
     25 C          61.3499   84.0562    5.9467 C.ar    1  UNL1       -0.0000
     26 C          60.2136   84.8023    6.5808 C.ar    1  UNL1       -0.0003
     27 C          60.4836   85.7883    7.6785 C.ar    1  UNL1       -0.0042
     28 C          63.4591   89.6516   13.3126 C.2     1  UNL1        0.2404
     29 O          62.5702   90.4195   12.3799 O.2     1  UNL1       -0.2733
     30 N          63.4238   88.1520   13.3178 N.am    1  UNL1       -0.3018
     31 H          64.0072   87.6480   13.9300 H       1  UNL1        0.1495
     32 C          64.3834   90.3832   14.2402 C.3     1  UNL1        0.1496
     33 N          67.9392   92.1431   14.1413 N.am    1  UNL1       -0.2567
     34 C          68.7885   93.0323   15.0003 C.3     1  UNL1        0.1168
     35 C          66.5859   91.7078   14.6202 C.2     1  UNL1        0.3046
     36 O          66.0820   92.1618   15.9581 O.2     1  UNL1       -0.2526
     37 N          65.7366   90.8185   13.7613 N.am    1  UNL1       -0.2824
     38 H          66.0674   90.5205   12.8832 H       1  UNL1        0.1514
     39 C          68.4431   91.6890   12.8034 C.3     1  UNL1        0.1413
     40 C          67.1679   94.1455   10.0822 C.ar    1  UNL1        0.0875
     41 N          67.2802   93.7233   11.5172 N.ar    1  UNL1       -0.2453
     42 C          68.0858   92.4589   11.5667 C.ar    1  UNL1        0.0858
     43 C          68.4714   92.0997   10.1624 C.ar    1  UNL1        0.0530
     44 S          67.9041   93.1420    9.2449 S.2     1  UNL1       -0.0705
     45 C          66.8000   95.9352    8.2352 C.3     1  UNL1        0.0069
     46 C          66.4462   95.3581    9.5738 C.3     1  UNL1        0.0465
     47 C          65.3707   95.9937   10.4040 C.3     1  UNL1        0.0069
     48 C          63.9544   90.6796   15.6467 C.3     1  UNL1        0.0270
     49 C          63.5534   89.5596   16.5603 C.3     1  UNL1        0.0022
     50 C          63.9266   92.0960   16.1395 C.3     1  UNL1        0.0022
     51 C          62.9608   86.1680   11.7055 C.3     1  UNL1        0.0485
     52 C          62.8028   84.8400   12.3849 C.ar    1  UNL1       -0.0204
     53 C          62.6868   83.5881   11.5668 C.ar    1  UNL1       -0.0042
     54 C          62.5287   82.2602   12.2461 C.ar    1  UNL1       -0.0003
     55 C          62.4867   82.1842   13.7436 C.ar    1  UNL1       -0.0000
     56 C          62.6027   83.4360   14.5617 C.ar    1  UNL1       -0.0003
     57 C          62.7607   84.7639   13.8824 C.ar    1  UNL1       -0.0042
@<TRIPOS>BOND
     1    45    46    1
     2    46    47    1
     3    46    40    1
     4    40    41   ar
     5    41    42   ar
     6    42    39    1
     7    39    33    1
     8    33    34    1
     9    33    35   am
    10    35    36    2
    11    35    37   am
    12    32    37    1
    13    32    28    1
    14    28    29    2
    15    28    30   am
    16    30     1    1
    17     1    51    1
    18    51    52    1
    19    52    53   ar
    20    53    54   ar
    21    54    55   ar
    22    55    56   ar
    23    56    57   ar
    24     1     2    1
    25     2     3    1
    26     3     4    1
    27     4     5    1
    28     4     6    1
    29     4     7    1
    30     8     7    1
    31     8     9    1
    32     9    21    1
    33    21    22    1
    34    22    23   ar
    35    23    24   ar
    36    24    25   ar
    37    25    26   ar
    38    26    27   ar
    39     9    10    1
    40    10    11   am
    41    11    12    2
    42    11    14    1
    43    14    15    1
    44    15    16    1
    45    16    17   ar
    46    17    18   ar
    47    18    19   ar
    48    19    20   ar
    49    32    48    1
    50    48    49    1
    51    48    50    1
    52    42    43   ar
    53    43    44   ar
    54    44    40   ar
    55    57    52   ar
    56     8     2    1
    57    27    22   ar
    58    20    16   ar
    59    37    38    1
    60    30    31    1
    61    10    13    1
@<TRIPOS>MOLECULE
*****
 57 61 0 0 0
SMALL
GASTEIGER

@<TRIPOS>ATOM
      1 C          63.1856   85.5339   13.5860 C.3     1  UNL1        0.1056
      2 C          63.2076   85.0771   12.1573 C.3     1  UNL1        0.1644
      3 O          64.0318   83.9527   11.6038 O.3     1  UNL1       -0.3325
      4 C          63.7428   83.8452   10.1358 C.3     1  UNL1        0.1874
      5 C          64.7282   82.7153   10.1848 C.3     1  UNL1        0.0612
      6 C          63.6598   83.5015    8.6781 C.3     1  UNL1        0.0612
      7 O          62.7400   84.9032    9.7821 O.3     1  UNL1       -0.3325
      8 C          62.4092   85.6646   11.0315 C.3     1  UNL1        0.1645
      9 C          61.4488   86.8119   11.1366 C.3     1  UNL1        0.1087
     10 N          61.8304   88.0415   11.9064 N.am    1  UNL1       -0.2695
     11 C          60.7719   88.8635   12.5798 C.2     1  UNL1        0.4020
     12 O          59.3314   88.4559   12.4835 O.2     1  UNL1       -0.2264
     13 H          62.7758   88.3090   11.9696 H       1  UNL1        0.1528
     14 O          61.1536   90.0931   13.3496 O.3     1  UNL1       -0.4291
     15 C          62.5483   90.6363   13.2518 C.3     1  UNL1        0.2447
     16 C          63.0645   91.1454   11.9386 C.ar    1  UNL1        0.0714
     17 C          64.2201   92.0828   11.7492 C.ar    1  UNL1        0.1053
     18 N          64.3856   92.3232   10.2779 N.ar    1  UNL1       -0.2350
     19 C          63.3323   91.5344    9.5580 C.ar    1  UNL1        0.1343
     20 S          62.5158   90.8064   10.5844 S.2     1  UNL1       -0.0652
     21 C          60.1066   86.7297   10.4719 C.3     1  UNL1        0.0486
     22 C          59.8532   87.4806    9.1983 C.ar    1  UNL1       -0.0204
     23 C          59.3387   86.7558    7.9900 C.ar    1  UNL1       -0.0042
     24 C          59.0852   87.5068    6.7165 C.ar    1  UNL1       -0.0003
     25 C          59.3463   88.9825    6.6513 C.ar    1  UNL1       -0.0000
     26 C          59.8608   89.7072    7.8596 C.ar    1  UNL1       -0.0003
     27 C          60.1142   88.9563    9.1331 C.ar    1  UNL1       -0.0042
     28 C          64.4530   87.5247   14.6725 C.2     1  UNL1        0.2404
     29 O          65.5395   86.5907   15.1166 O.2     1  UNL1       -0.2733
     30 N          63.2760   86.9963   13.9072 N.am    1  UNL1       -0.3018
     31 H          62.5629   87.6093   13.6158 H       1  UNL1        0.1495
     32 C          64.5434   88.9871   14.9938 C.3     1  UNL1        0.1496
     33 N          66.9768   92.0091   14.1591 N.am    1  UNL1       -0.2567
     34 C          67.4403   93.2954   14.7760 C.3     1  UNL1        0.1168
     35 C          65.9918   91.1413   14.8849 C.2     1  UNL1        0.3046
     36 O          65.4703   91.5598   16.2276 O.2     1  UNL1       -0.2526
     37 N          65.5284   89.8550   14.2680 N.am    1  UNL1       -0.2824
     38 H          65.8707   89.5803   13.3867 H       1  UNL1        0.1514
     39 C          67.4984   91.5905   12.8164 C.3     1  UNL1        0.1413
     40 C          67.1701   94.5751   10.3567 C.ar    1  UNL1        0.0875
     41 N          67.0043   93.9792   11.7233 N.ar    1  UNL1       -0.2453
     42 C          67.4837   92.5589   11.6710 C.ar    1  UNL1        0.0858
     43 C          67.9458   92.2768   10.2721 C.ar    1  UNL1        0.0530
     44 S          67.7520   93.5229    9.4598 S.2     1  UNL1       -0.0705
     45 C          67.2393   96.5047    8.6184 C.3     1  UNL1        0.0069
     46 C          66.8162   95.9769    9.9572 C.3     1  UNL1        0.0465
     47 C          66.0392   96.8509   10.8965 C.3     1  UNL1        0.0069
     48 C          63.6488   89.5817   16.0408 C.3     1  UNL1        0.0270
     49 C          63.0315   88.7022   17.0873 C.3     1  UNL1        0.0022
     50 C          63.3716   91.0558   16.0412 C.3     1  UNL1        0.0022
     51 C          63.0733   84.5283   14.6933 C.3     1  UNL1        0.0485
     52 C          62.8569   83.0793   14.3714 C.ar    1  UNL1       -0.0204
     53 C          61.4727   82.5023   14.4041 C.ar    1  UNL1       -0.0042
     54 C          61.2564   81.0534   14.0822 C.ar    1  UNL1       -0.0003
     55 C          62.4242   80.1813   13.7277 C.ar    1  UNL1       -0.0000
     56 C          63.8084   80.7583   13.6950 C.ar    1  UNL1       -0.0003
     57 C          64.0247   82.2073   14.0169 C.ar    1  UNL1       -0.0042
@<TRIPOS>BOND
     1    45    46    1
     2    46    47    1
     3    46    40    1
     4    40    41   ar
     5    41    42   ar
     6    42    39    1
     7    39    33    1
     8    33    34    1
     9    33    35   am
    10    35    36    2
    11    35    37   am
    12    32    37    1
    13    32    28    1
    14    28    29    2
    15    28    30   am
    16    30     1    1
    17     1    51    1
    18    51    52    1
    19    52    53   ar
    20    53    54   ar
    21    54    55   ar
    22    55    56   ar
    23    56    57   ar
    24     1     2    1
    25     2     3    1
    26     3     4    1
    27     4     5    1
    28     4     6    1
    29     4     7    1
    30     8     7    1
    31     8     9    1
    32     9    21    1
    33    21    22    1
    34    22    23   ar
    35    23    24   ar
    36    24    25   ar
    37    25    26   ar
    38    26    27   ar
    39     9    10    1
    40    10    11   am
    41    11    12    2
    42    11    14    1
    43    14    15    1
    44    15    16    1
    45    16    17   ar
    46    17    18   ar
    47    18    19   ar
    48    19    20   ar
    49    32    48    1
    50    48    49    1
    51    48    50    1
    52    42    43   ar
    53    43    44   ar
    54    44    40   ar
    55    57    52   ar
    56     8     2    1
    57    27    22   ar
    58    20    16   ar
    59    37    38    1
    60    30    31    1
    61    10    13    1
@<TRIPOS>MOLECULE
*****
 57 61 0 0 0
SMALL
GASTEIGER

@<TRIPOS>ATOM
      1 C          63.1983   88.1799   12.4725 C.3     1  UNL1        0.1056
      2 C          62.1716   89.2511   12.2520 C.3     1  UNL1        0.1644
      3 O          60.6842   89.0777   12.3378 O.3     1  UNL1       -0.3325
      4 C          60.0455   90.4032   12.0460 C.3     1  UNL1        0.1874
      5 C          58.7632   89.6551   12.2605 C.3     1  UNL1        0.0612
      6 C          59.1387   91.5723   11.7989 C.3     1  UNL1        0.0612
      7 O          61.1382   91.3958   11.7797 O.3     1  UNL1       -0.3325
      8 C          62.4523   90.6836   11.9071 C.3     1  UNL1        0.1645
      9 C          63.8088   91.2966   11.7221 C.3     1  UNL1        0.1087
     10 N          64.8111   91.2504   12.8371 N.am    1  UNL1       -0.2695
     11 C          64.3510   91.3248   14.2628 C.2     1  UNL1        0.4020
     12 O          62.8884   91.4452   14.5735 O.2     1  UNL1       -0.2264
     13 H          65.7710   91.1714   12.6331 H       1  UNL1        0.1528
     14 O          65.3533   91.2787   15.3778 O.3     1  UNL1       -0.4291
     15 C          66.0713   92.5285   15.7930 C.3     1  UNL1        0.2447
     16 C          67.5073   92.7311   15.4096 C.ar    1  UNL1        0.0714
     17 C          68.2052   92.1008   14.2410 C.ar    1  UNL1        0.1053
     18 N          69.6266   92.5798   14.2367 N.ar    1  UNL1       -0.2350
     19 C          69.8072   93.5062   15.4026 C.ar    1  UNL1        0.1343
     20 S          68.4974   93.5997   16.1275 S.2     1  UNL1       -0.0652
     21 C          64.1630   91.9556   10.4220 C.3     1  UNL1        0.0486
     22 C          65.4504   92.7143   10.2920 C.ar    1  UNL1       -0.0204
     23 C          65.4548   94.2097   10.4090 C.ar    1  UNL1       -0.0042
     24 C          66.7423   94.9684   10.2790 C.ar    1  UNL1       -0.0003
     25 C          68.0253   94.2316   10.0320 C.ar    1  UNL1       -0.0000
     26 C          68.0209   92.7362    9.9150 C.ar    1  UNL1       -0.0003
     27 C          66.7334   91.9775   10.0450 C.ar    1  UNL1       -0.0042
     28 C          62.5497   85.7290   11.9046 C.2     1  UNL1        0.2404
     29 O          61.7743   85.6374   13.1853 O.2     1  UNL1       -0.2733
     30 N          63.2617   87.0002   11.5481 N.am    1  UNL1       -0.3018
     31 H          63.7707   87.0603   10.7075 H       1  UNL1        0.1495
     32 C          62.6131   84.5493   10.9802 C.3     1  UNL1        0.1496
     33 N          62.1591   84.5426    7.0376 N.am    1  UNL1       -0.2567
     34 C          62.9938   84.3925    5.8004 C.3     1  UNL1        0.1168
     35 C          62.8035   84.4709    8.3903 C.2     1  UNL1        0.3046
     36 O          64.2825   84.2492    8.5057 O.2     1  UNL1       -0.2526
     37 N          61.9688   84.6210    9.6275 N.am    1  UNL1       -0.2824
     38 H          60.9980   84.7665    9.5517 H       1  UNL1        0.1514
     39 C          60.6801   84.7643    6.9222 C.3     1  UNL1        0.1413
     40 C          59.3425   88.4066    6.8227 C.ar    1  UNL1        0.0875
     41 N          59.9655   87.2208    6.1476 N.ar    1  UNL1       -0.2453
     42 C          60.1049   86.1280    7.1657 C.ar    1  UNL1        0.0858
     43 C          59.5680   86.6384    8.4700 C.ar    1  UNL1        0.0530
     44 S          59.0969   88.0466    8.2580 S.2     1  UNL1       -0.0705
     45 C          60.1269   90.5876    5.6488 C.3     1  UNL1        0.0069
     46 C          59.0216   89.7214    6.1761 C.3     1  UNL1        0.0465
     47 C          57.5952   90.1701    6.0567 C.3     1  UNL1        0.0069
     48 C          63.3208   83.2981   11.4085 C.3     1  UNL1        0.0270
     49 C          62.7075   81.9574   11.1318 C.3     1  UNL1        0.0022
     50 C          64.6417   83.3875   12.1136 C.3     1  UNL1        0.0022
     51 C          64.1615   88.2883   13.6172 C.3     1  UNL1        0.0485
     52 C          63.8415   87.6386   14.9308 C.ar    1  UNL1       -0.0204
     53 C          64.1433   86.1845   15.1415 C.ar    1  UNL1       -0.0042
     54 C          63.8233   85.5348   16.4551 C.ar    1  UNL1       -0.0003
     55 C          63.2016   86.3392   17.5579 C.ar    1  UNL1       -0.0000
     56 C          62.8998   87.7933   17.3472 C.ar    1  UNL1       -0.0003
     57 C          63.2198   88.4430   16.0337 C.ar    1  UNL1       -0.0042
@<TRIPOS>BOND
     1    45    46    1
     2    46    47    1
     3    46    40    1
     4    40    41   ar
     5    41    42   ar
     6    42    39    1
     7    39    33    1
     8    33    34    1
     9    33    35   am
    10    35    36    2
    11    35    37   am
    12    32    37    1
    13    32    28    1
    14    28    29    2
    15    28    30   am
    16    30     1    1
    17     1    51    1
    18    51    52    1
    19    52    53   ar
    20    53    54   ar
    21    54    55   ar
    22    55    56   ar
    23    56    57   ar
    24     1     2    1
    25     2     3    1
    26     3     4    1
    27     4     5    1
    28     4     6    1
    29     4     7    1
    30     8     7    1
    31     8     9    1
    32     9    21    1
    33    21    22    1
    34    22    23   ar
    35    23    24   ar
    36    24    25   ar
    37    25    26   ar
    38    26    27   ar
    39     9    10    1
    40    10    11   am
    41    11    12    2
    42    11    14    1
    43    14    15    1
    44    15    16    1
    45    16    17   ar
    46    17    18   ar
    47    18    19   ar
    48    19    20   ar
    49    32    48    1
    50    48    49    1
    51    48    50    1
    52    42    43   ar
    53    43    44   ar
    54    44    40   ar
    55    57    52   ar
    56     8     2    1
    57    27    22   ar
    58    20    16   ar
    59    37    38    1
    60    30    31    1
    61    10    13    1
@<TRIPOS>MOLECULE
*****
 57 61 0 0 0
SMALL
GASTEIGER

@<TRIPOS>ATOM
      1 C          63.2336   87.6434   12.7162 C.3     1  UNL1        0.1056
      2 C          62.2780   88.0580   11.6367 C.3     1  UNL1        0.1644
      3 O          61.6150   89.3978   11.5130 O.3     1  UNL1       -0.3325
      4 C          60.7451   89.3735   10.2914 C.3     1  UNL1        0.1874
      5 C          60.4238   90.7850   10.6845 C.3     1  UNL1        0.0612
      6 C          59.8079   89.6442    9.1519 C.3     1  UNL1        0.0612
      7 O          60.8704   88.0186    9.6600 O.3     1  UNL1       -0.3325
      8 C          61.8179   87.2056   10.4915 C.3     1  UNL1        0.1645
      9 C          62.2323   85.7889   10.2246 C.3     1  UNL1        0.1087
     10 N          61.7763   84.6894   11.1373 N.am    1  UNL1       -0.2695
     11 C          62.6858   83.5337   11.4321 C.2     1  UNL1        0.4020
     12 O          64.0515   83.4774   10.8141 O.2     1  UNL1       -0.2264
     13 H          60.8800   84.7263   11.5429 H       1  UNL1        0.1528
     14 O          62.2298   82.4341   12.3449 O.3     1  UNL1       -0.4291
     15 C          63.0515   81.1872   12.4859 C.3     1  UNL1        0.2447
     16 C          62.9349   80.0928   11.4668 C.ar    1  UNL1        0.0714
     17 C          62.6317   78.6516   11.7514 C.ar    1  UNL1        0.1053
     18 N          62.6104   77.9157   10.4445 N.ar    1  UNL1       -0.2350
     19 C          62.9004   78.9020    9.3523 C.ar    1  UNL1        0.1343
     20 S          63.1010   80.2476    9.9840 S.2     1  UNL1       -0.0652
     21 C          63.1028   85.4717    9.0449 C.3     1  UNL1        0.0486
     22 C          62.4807   85.0778    7.7381 C.ar    1  UNL1       -0.0204
     23 C          61.0025   85.2314    7.5346 C.ar    1  UNL1       -0.0042
     24 C          60.3804   84.8374    6.2277 C.ar    1  UNL1       -0.0003
     25 C          61.2365   84.2898    5.1245 C.ar    1  UNL1       -0.0000
     26 C          62.7147   84.1361    5.3280 C.ar    1  UNL1       -0.0003
     27 C          63.3367   84.5301    6.6349 C.ar    1  UNL1       -0.0042
     28 C          63.9385   89.9915   13.5762 C.2     1  UNL1        0.2404
     29 O          64.0503   90.4762   12.1611 O.2     1  UNL1       -0.2733
     30 N          63.5301   88.5750   13.8537 N.am    1  UNL1       -0.3018
     31 H          63.4567   88.2569   14.7825 H       1  UNL1        0.1495
     32 C          64.2351   90.9231   14.7138 C.3     1  UNL1        0.1496
     33 N          67.3259   93.4063   14.5373 N.am    1  UNL1       -0.2567
     34 C          68.7958   93.4102   14.8361 C.3     1  UNL1        0.1168
     35 C          66.5154   92.1666   14.7749 C.2     1  UNL1        0.3046
     36 O          67.1749   90.9308   15.3114 O.2     1  UNL1       -0.2526
     37 N          65.0455   92.1628   14.4761 N.am    1  UNL1       -0.2824
     38 H          64.6127   92.9740   14.1241 H       1  UNL1        0.1514
     39 C          66.6664   94.6422   14.0009 C.3     1  UNL1        0.1413
     40 C          67.0731   94.7090   10.1414 C.ar    1  UNL1        0.0875
     41 N          67.2579   94.0313   11.4668 N.ar    1  UNL1       -0.2453
     42 C          66.6927   94.9275   12.5285 C.ar    1  UNL1        0.0858
     43 C          66.1585   96.1591   11.8594 C.ar    1  UNL1        0.0530
     44 S          66.3936   96.0241   10.3841 S.2     1  UNL1       -0.0705
     45 C          68.2549   92.8767    8.7286 C.3     1  UNL1        0.0069
     46 C          67.4938   94.1668    8.8076 C.3     1  UNL1        0.0465
     47 C          67.1533   94.9149    7.5528 C.3     1  UNL1        0.0069
     48 C          63.7212   90.6151   16.0889 C.3     1  UNL1        0.0270
     49 C          63.7871   91.6579   17.1652 C.3     1  UNL1        0.0022
     50 C          63.1414   89.2644   16.3878 C.3     1  UNL1        0.0022
     51 C          63.8925   86.2971   12.6580 C.3     1  UNL1        0.0485
     52 C          63.6829   85.3109   13.7686 C.ar    1  UNL1       -0.0204
     53 C          64.7826   84.3643   14.1486 C.ar    1  UNL1       -0.0042
     54 C          64.5730   83.3781   15.2592 C.ar    1  UNL1       -0.0003
     55 C          63.2636   83.3385   15.9898 C.ar    1  UNL1       -0.0000
     56 C          62.1638   84.2851   15.6098 C.ar    1  UNL1       -0.0003
     57 C          62.3734   85.2713   14.4993 C.ar    1  UNL1       -0.0042
@<TRIPOS>BOND
     1    45    46    1
     2    46    47    1
     3    46    40    1
     4    40    41   ar
     5    41    42   ar
     6    42    39    1
     7    39    33    1
     8    33    34    1
     9    33    35   am
    10    35    36    2
    11    35    37   am
    12    32    37    1
    13    32    28    1
    14    28    29    2
    15    28    30   am
    16    30     1    1
    17     1    51    1
    18    51    52    1
    19    52    53   ar
    20    53    54   ar
    21    54    55   ar
    22    55    56   ar
    23    56    57   ar
    24     1     2    1
    25     2     3    1
    26     3     4    1
    27     4     5    1
    28     4     6    1
    29     4     7    1
    30     8     7    1
    31     8     9    1
    32     9    21    1
    33    21    22    1
    34    22    23   ar
    35    23    24   ar
    36    24    25   ar
    37    25    26   ar
    38    26    27   ar
    39     9    10    1
    40    10    11   am
    41    11    12    2
    42    11    14    1
    43    14    15    1
    44    15    16    1
    45    16    17   ar
    46    17    18   ar
    47    18    19   ar
    48    19    20   ar
    49    32    48    1
    50    48    49    1
    51    48    50    1
    52    42    43   ar
    53    43    44   ar
    54    44    40   ar
    55    57    52   ar
    56     8     2    1
    57    27    22   ar
    58    20    16   ar
    59    37    38    1
    60    30    31    1
    61    10    13    1
