@<TRIPOS>MOLECULE
*****
 29 32 0 0 0
SMALL
GASTEIGER

@<TRIPOS>ATOM
      1 C          64.0367   91.2413   13.2907 C.3     1  UNL1        0.0518
      2 C          63.7974   89.7670   13.1513 C.ar    1  UNL1        0.0563
      3 N          64.3158   88.8212   14.1937 N.ar    1  UNL1       -0.2524
      4 C          64.0765   87.3470   14.0543 C.ar    1  UNL1        0.0830
      5 C          63.3188   86.8186   12.8724 C.ar    1  UNL1        0.0686
      6 C          62.8004   87.7644   11.8300 C.ar    1  UNL1        0.0048
      7 C          63.0398   89.2387   11.9695 C.ar    1  UNL1        0.0072
      8 C          63.2379   85.3265   13.0030 C.2     1  UNL1        0.2506
      9 O          62.5671   84.3923   12.0401 O.2     1  UNL1       -0.2699
     10 N          63.9455   84.9327   14.2656 N.am    1  UNL1       -0.2679
     11 C          64.4638   86.1814   14.9153 C.3     1  UNL1        0.1398
     12 C          62.0428   87.2361   10.6481 C.ar    1  UNL1        0.0106
     13 C          62.7739   86.5392    9.5391 C.ar    1  UNL1        0.0017
     14 C          62.0163   86.0109    8.3572 C.ar    1  UNL1        0.0114
     15 C          60.5276   86.1795    8.2843 C.ar    1  UNL1        0.0585
     16 CL         59.7700   85.6512    7.1023 Cl      1  UNL1       -0.0822
     17 C          59.7965   86.8765    9.3932 C.ar    1  UNL1        0.0228
     18 C          60.5541   87.4048   10.5751 C.ar    1  UNL1        0.0585
     19 CL         59.8230   88.1017   11.6841 Cl      1  UNL1       -0.0822
     20 C          62.5214   90.1846   10.9270 C.3     1  UNL1        0.0934
     21 N          61.2502   90.9435   11.1684 N.3     1  UNL1       -0.3174
     22 H          60.4675   90.2908   11.2110 H       1  UNL1        0.1192
     23 H          61.0997   91.6056   10.4073 H       1  UNL1        0.1192
     24 C          64.1067   83.5355   14.7869 C.3     1  UNL1        0.1235
     25 C          63.2334   82.4341   14.2631 C.3     1  UNL1        0.1351
     26 C          63.6559   81.3468   13.3202 C.3     1  UNL1        0.0339
     27 C          62.4680   80.4674   13.0646 C.3     1  UNL1        0.0346
     28 C          61.3111   81.0112   13.8495 C.3     1  UNL1        0.1422
     29 O          61.7842   82.2268   14.5903 O.3     1  UNL1       -0.3545
@<TRIPOS>BOND
     1     1     2    1
     2     2     3   ar
     3     3     4   ar
     4     4     5   ar
     5     5     6   ar
     6     6    12    1
     7    12    13   ar
     8    13    14   ar
     9    14    15   ar
    10    15    16    1
    11    15    17   ar
    12    17    18   ar
    13    18    19    1
    14     6     7   ar
    15     7    20    1
    16    20    21    1
    17     5     8    1
    18     8     9    2
    19     8    10   am
    20    10    24    1
    21    25    24    1
    22    25    26    1
    23    26    27    1
    24    27    28    1
    25    28    29    1
    26    10    11    1
    27     7     2   ar
    28    29    25    1
    29    11     4    1
    30    18    12   ar
    31    21    22    1
    32    21    23    1
@<TRIPOS>MOLECULE
*****
 29 32 0 0 0
SMALL
GASTEIGER

@<TRIPOS>ATOM
      1 C          59.0006   88.3460    7.2386 C.3     1  UNL1        0.0518
      2 C          59.9728   88.3535    8.3809 C.ar    1  UNL1        0.0563
      3 N          60.3356   89.6468    9.0485 N.ar    1  UNL1       -0.2524
      4 C          61.3077   89.6544   10.1908 C.ar    1  UNL1        0.0830
      5 C          61.9171   88.3686   10.6655 C.ar    1  UNL1        0.0686
      6 C          61.5544   87.0752    9.9979 C.ar    1  UNL1        0.0048
      7 C          60.5822   87.0678    8.8556 C.ar    1  UNL1        0.0072
      8 C          62.8385   88.6855   11.8060 C.2     1  UNL1        0.2506
      9 O          63.6562   87.6947   12.5804 O.2     1  UNL1       -0.2699
     10 N          62.7984   90.1672   12.0362 N.am    1  UNL1       -0.2679
     11 C          61.8524   90.7660   11.0380 C.3     1  UNL1        0.1398
     12 C          62.1638   85.7894   10.4726 C.ar    1  UNL1        0.0106
     13 C          61.8271   85.2575   11.8341 C.ar    1  UNL1        0.0017
     14 C          62.4364   83.9717   12.3088 C.ar    1  UNL1        0.0114
     15 C          63.3825   83.2178   11.4219 C.ar    1  UNL1        0.0585
     16 CL         63.9918   81.9319   11.8967 Cl      1  UNL1       -0.0822
     17 C          63.7193   83.7496   10.0604 C.ar    1  UNL1        0.0228
     18 C          63.1099   85.0355    9.5857 C.ar    1  UNL1        0.0585
     19 CL         63.4467   85.5673    8.2242 Cl      1  UNL1       -0.0822
     20 C          60.2195   85.7744    8.1879 C.3     1  UNL1        0.0934
     21 N          60.7204   85.4776    6.8055 N.3     1  UNL1       -0.3174
     22 H          60.3036   86.1335    6.1448 H       1  UNL1        0.1192
     23 H          60.4624   84.5251    6.5476 H       1  UNL1        0.1192
     24 C          63.5691   90.9183   13.0812 C.3     1  UNL1        0.1235
     25 C          64.6328   91.8936   12.6722 C.3     1  UNL1        0.1351
     26 C          65.0530   92.2014   11.2656 C.3     1  UNL1        0.0339
     27 C          66.1430   93.2303   11.3221 C.3     1  UNL1        0.0346
     28 C          66.3965   93.5584   12.7636 C.3     1  UNL1        0.1422
     29 O          65.4632   92.7322   13.5981 O.3     1  UNL1       -0.3545
@<TRIPOS>BOND
     1     1     2    1
     2     2     3   ar
     3     3     4   ar
     4     4     5   ar
     5     5     6   ar
     6     6    12    1
     7    12    13   ar
     8    13    14   ar
     9    14    15   ar
    10    15    16    1
    11    15    17   ar
    12    17    18   ar
    13    18    19    1
    14     6     7   ar
    15     7    20    1
    16    20    21    1
    17     5     8    1
    18     8     9    2
    19     8    10   am
    20    10    24    1
    21    25    24    1
    22    25    26    1
    23    26    27    1
    24    27    28    1
    25    28    29    1
    26    10    11    1
    27     7     2   ar
    28    29    25    1
    29    11     4    1
    30    18    12   ar
    31    21    22    1
    32    21    23    1
@<TRIPOS>MOLECULE
*****
 29 32 0 0 0
SMALL
GASTEIGER

@<TRIPOS>ATOM
      1 C          66.9491   93.2609   12.7640 C.3     1  UNL1        0.0518
      2 C          65.7986   92.3161   12.5799 C.ar    1  UNL1        0.0563
      3 N          64.9589   92.3898   11.3392 N.ar    1  UNL1       -0.2524
      4 C          63.8084   91.4451   11.1550 C.ar    1  UNL1        0.0830
      5 C          63.4977   90.4266   12.2114 C.ar    1  UNL1        0.0686
      6 C          64.3375   90.3528   13.4521 C.ar    1  UNL1        0.0048
      7 C          65.4880   91.2976   13.6363 C.ar    1  UNL1        0.0072
      8 C          62.3089   89.6336   11.7555 C.2     1  UNL1        0.2506
      9 O          61.6584   88.5096   12.5061 O.2     1  UNL1       -0.2699
     10 N          61.8849   90.1620   10.4173 N.am    1  UNL1       -0.2679
     11 C          62.8116   91.2816   10.0461 C.3     1  UNL1        0.1398
     12 C          64.0269   89.3343   14.5087 C.ar    1  UNL1        0.0106
     13 C          64.3313   87.8857   14.2664 C.ar    1  UNL1        0.0017
     14 C          64.0207   86.8671   15.3229 C.ar    1  UNL1        0.0114
     15 C          63.4057   87.2973   16.6216 C.ar    1  UNL1        0.0585
     16 CL         63.0951   86.2788   17.6780 Cl      1  UNL1       -0.0822
     17 C          63.1013   88.7460   16.8638 C.ar    1  UNL1        0.0228
     18 C          63.4118   89.7645   15.8074 C.ar    1  UNL1        0.0585
     19 CL         63.1074   91.2132   16.0496 Cl      1  UNL1       -0.0822
     20 C          66.3278   91.2238   14.8771 C.3     1  UNL1        0.0934
     21 N          66.3086   92.3533   15.8640 N.3     1  UNL1       -0.3174
     22 H          66.7108   93.1866   15.4349 H       1  UNL1        0.1192
     23 H          66.8555   92.0962   16.6856 H       1  UNL1        0.1192
     24 C          60.7358   89.6592    9.5946 C.3     1  UNL1        0.1235
     25 C          60.7600   88.2631    9.0467 C.3     1  UNL1        0.1351
     26 C          59.7295   87.6523    8.1438 C.3     1  UNL1        0.0339
     27 C          60.1515   86.2444    7.8445 C.3     1  UNL1        0.0346
     28 C          61.4428   85.9849    8.5623 C.3     1  UNL1        0.1422
     29 O          61.8189   87.2326    9.3053 O.3     1  UNL1       -0.3545
@<TRIPOS>BOND
     1     1     2    1
     2     2     3   ar
     3     3     4   ar
     4     4     5   ar
     5     5     6   ar
     6     6    12    1
     7    12    13   ar
     8    13    14   ar
     9    14    15   ar
    10    15    16    1
    11    15    17   ar
    12    17    18   ar
    13    18    19    1
    14     6     7   ar
    15     7    20    1
    16    20    21    1
    17     5     8    1
    18     8     9    2
    19     8    10   am
    20    10    24    1
    21    25    24    1
    22    25    26    1
    23    26    27    1
    24    27    28    1
    25    28    29    1
    26    10    11    1
    27     7     2   ar
    28    29    25    1
    29    11     4    1
    30    18    12   ar
    31    21    22    1
    32    21    23    1
@<TRIPOS>MOLECULE
*****
 29 32 0 0 0
SMALL
GASTEIGER

@<TRIPOS>ATOM
      1 C          58.9455   88.2991    7.1601 C.3     1  UNL1        0.0518
      2 C          59.9263   88.3321    8.2947 C.ar    1  UNL1        0.0563
      3 N          60.2900   89.6395    8.9338 N.ar    1  UNL1       -0.2524
      4 C          61.2707   89.6726   10.0683 C.ar    1  UNL1        0.0830
      5 C          61.8877   88.3983   10.5637 C.ar    1  UNL1        0.0686
      6 C          61.5240   87.0909    9.9247 C.ar    1  UNL1        0.0048
      7 C          60.5432   87.0579    8.7901 C.ar    1  UNL1        0.0072
      8 C          62.8165   88.7406   11.6907 C.2     1  UNL1        0.2506
      9 O          63.6432   87.7678   12.4783 O.2     1  UNL1       -0.2699
     10 N          62.7736   90.2264   11.8917 N.am    1  UNL1       -0.2679
     11 C          61.8182   90.8024   10.8890 C.3     1  UNL1        0.1398
     12 C          62.1410   85.8165   10.4201 C.ar    1  UNL1        0.0106
     13 C          61.7925   85.2948   11.7826 C.ar    1  UNL1        0.0017
     14 C          62.4094   84.0205   12.2781 C.ar    1  UNL1        0.0114
     15 C          63.3747   83.2679   11.4110 C.ar    1  UNL1        0.0585
     16 CL         63.9916   81.9936   11.9065 Cl      1  UNL1       -0.0822
     17 C          63.7232   83.7897   10.0485 C.ar    1  UNL1        0.0228
     18 C          63.1063   85.0640    9.5531 C.ar    1  UNL1        0.0585
     19 CL         63.4547   85.5858    8.1906 Cl      1  UNL1       -0.0822
     20 C          60.1795   85.7504    8.1510 C.3     1  UNL1        0.0934
     21 N          60.7254   85.3990    6.7988 N.3     1  UNL1       -0.3174
     22 H          60.3468   86.0407    6.1021 H       1  UNL1        0.1192
     23 H          60.4580   84.4436    6.5619 H       1  UNL1        0.1192
     24 C          63.5498   91.0004   12.9157 C.3     1  UNL1        0.1235
     25 C          63.4542   90.6306   14.3663 C.3     1  UNL1        0.1351
     26 C          64.2684   91.2173   15.4811 C.3     1  UNL1        0.0339
     27 C          63.8452   90.5586   16.7605 C.3     1  UNL1        0.0346
     28 C          62.7694   89.5647   16.4365 C.3     1  UNL1        0.1422
     29 O          62.5278   89.6092   14.9567 O.3     1  UNL1       -0.3545
@<TRIPOS>BOND
     1     1     2    1
     2     2     3   ar
     3     3     4   ar
     4     4     5   ar
     5     5     6   ar
     6     6    12    1
     7    12    13   ar
     8    13    14   ar
     9    14    15   ar
    10    15    16    1
    11    15    17   ar
    12    17    18   ar
    13    18    19    1
    14     6     7   ar
    15     7    20    1
    16    20    21    1
    17     5     8    1
    18     8     9    2
    19     8    10   am
    20    10    24    1
    21    25    24    1
    22    25    26    1
    23    26    27    1
    24    27    28    1
    25    28    29    1
    26    10    11    1
    27     7     2   ar
    28    29    25    1
    29    11     4    1
    30    18    12   ar
    31    21    22    1
    32    21    23    1
@<TRIPOS>MOLECULE
*****
 29 32 0 0 0
SMALL
GASTEIGER

@<TRIPOS>ATOM
      1 C          60.8439   89.2946    9.2158 C.3     1  UNL1        0.0518
      2 C          61.6317   88.7179   10.3546 C.ar    1  UNL1        0.0563
      3 N          61.6786   87.2325   10.5577 N.ar    1  UNL1       -0.2524
      4 C          62.4663   86.6557   11.6965 C.ar    1  UNL1        0.0830
      5 C          63.2071   87.5644   12.6322 C.ar    1  UNL1        0.0686
      6 C          63.1603   89.0498   12.4291 C.ar    1  UNL1        0.0048
      7 C          62.3725   89.6265   11.2902 C.ar    1  UNL1        0.0072
      8 C          63.8944   86.7129   13.6581 C.2     1  UNL1        0.2506
      9 O          64.7479   87.2092   14.7874 O.2     1  UNL1       -0.2699
     10 N          63.5782   85.2779   13.3566 N.am    1  UNL1       -0.2679
     11 C          62.6957   85.2426   12.1442 C.3     1  UNL1        0.1398
     12 C          63.9011   89.9586   13.3647 C.ar    1  UNL1        0.0106
     13 C          65.1334   90.6742   12.8963 C.ar    1  UNL1        0.0017
     14 C          65.8743   91.5829   13.8318 C.ar    1  UNL1        0.0114
     15 C          65.3828   91.7760   15.2358 C.ar    1  UNL1        0.0585
     16 CL         66.1237   92.6848   16.1713 Cl      1  UNL1       -0.0822
     17 C          64.1506   91.0604   15.7042 C.ar    1  UNL1        0.0228
     18 C          63.4097   90.1517   14.7687 C.ar    1  UNL1        0.0585
     19 CL         62.1774   89.4361   15.2371 Cl      1  UNL1       -0.0822
     20 C          62.3256   91.1121   11.0871 C.3     1  UNL1        0.0934
     21 N          63.1381   91.7460    9.9971 N.3     1  UNL1       -0.3174
     22 H          64.1306   91.6332   10.2035 H       1  UNL1        0.1192
     23 H          62.9135   92.7393    9.9396 H       1  UNL1        0.1192
     24 C          64.0601   84.0873   14.1313 C.3     1  UNL1        0.1235
     25 C          63.3366   82.7779   14.0212 C.3     1  UNL1        0.1351
     26 C          63.8519   81.5398   13.3492 C.3     1  UNL1        0.0339
     27 C          62.8046   80.4735   13.4764 C.3     1  UNL1        0.0346
     28 C          61.6421   81.0525   14.2269 C.3     1  UNL1        0.1422
     29 O          61.9709   82.4768   14.5636 O.3     1  UNL1       -0.3545
@<TRIPOS>BOND
     1     1     2    1
     2     2     3   ar
     3     3     4   ar
     4     4     5   ar
     5     5     6   ar
     6     6    12    1
     7    12    13   ar
     8    13    14   ar
     9    14    15   ar
    10    15    16    1
    11    15    17   ar
    12    17    18   ar
    13    18    19    1
    14     6     7   ar
    15     7    20    1
    16    20    21    1
    17     5     8    1
    18     8     9    2
    19     8    10   am
    20    10    24    1
    21    25    24    1
    22    25    26    1
    23    26    27    1
    24    27    28    1
    25    28    29    1
    26    10    11    1
    27     7     2   ar
    28    29    25    1
    29    11     4    1
    30    18    12   ar
    31    21    22    1
    32    21    23    1
@<TRIPOS>MOLECULE
*****
 29 32 0 0 0
SMALL
GASTEIGER

@<TRIPOS>ATOM
      1 C          63.1817   92.3802    2.6267 C.3     1  UNL1        0.0518
      2 C          62.5370   92.7325    1.3189 C.ar    1  UNL1        0.0563
      3 N          61.1169   92.3308    1.0506 N.ar    1  UNL1       -0.2524
      4 C          60.4722   92.6830   -0.2572 C.ar    1  UNL1        0.0830
      5 C          61.2475   93.4370   -1.2966 C.ar    1  UNL1        0.0686
      6 C          62.6676   93.8387   -1.0283 C.ar    1  UNL1        0.0048
      7 C          63.3123   93.4864    0.2795 C.ar    1  UNL1        0.0072
      8 C          60.3534   93.6428   -2.4832 C.2     1  UNL1        0.2506
      9 O          60.7224   94.3511   -3.7530 O.2     1  UNL1       -0.2699
     10 N          59.0254   93.0161   -2.1772 N.am    1  UNL1       -0.2679
     11 C          59.0988   92.4229   -0.8014 C.3     1  UNL1        0.1398
     12 C          63.4430   94.5927   -2.0677 C.ar    1  UNL1        0.0106
     13 C          63.6126   96.0781   -1.9459 C.ar    1  UNL1        0.0017
     14 C          64.3880   96.8321   -2.9853 C.ar    1  UNL1        0.0114
     15 C          64.9937   96.1007   -4.1463 C.ar    1  UNL1        0.0585
     16 CL         65.7691   96.8548   -5.1856 Cl      1  UNL1       -0.0822
     17 C          64.8241   94.6153   -4.2681 C.ar    1  UNL1        0.0228
     18 C          64.0487   93.8613   -3.2288 C.ar    1  UNL1        0.0585
     19 CL         63.8791   92.3759   -3.3505 Cl      1  UNL1       -0.0822
     20 C          64.7325   93.8881    0.5479 C.3     1  UNL1        0.0934
     21 N          65.8278   92.8660    0.4739 N.3     1  UNL1       -0.3174
     22 H          65.7017   92.1782    1.2166 H       1  UNL1        0.1192
     23 H          66.7308   93.3266    0.5868 H       1  UNL1        0.1192
     24 C          57.8333   92.9875   -3.0871 C.3     1  UNL1        0.1235
     25 C          56.6704   93.8990   -2.8286 C.3     1  UNL1        0.1351
     26 C          55.5333   93.6322   -1.8874 C.3     1  UNL1        0.0339
     27 C          54.6006   94.8056   -1.9429 C.3     1  UNL1        0.0346
     28 C          55.1611   95.7977   -2.9184 C.3     1  UNL1        0.1422
     29 O          56.4404   95.2373   -3.4658 O.3     1  UNL1       -0.3545
@<TRIPOS>BOND
     1     1     2    1
     2     2     3   ar
     3     3     4   ar
     4     4     5   ar
     5     5     6   ar
     6     6    12    1
     7    12    13   ar
     8    13    14   ar
     9    14    15   ar
    10    15    16    1
    11    15    17   ar
    12    17    18   ar
    13    18    19    1
    14     6     7   ar
    15     7    20    1
    16    20    21    1
    17     5     8    1
    18     8     9    2
    19     8    10   am
    20    10    24    1
    21    25    24    1
    22    25    26    1
    23    26    27    1
    24    27    28    1
    25    28    29    1
    26    10    11    1
    27     7     2   ar
    28    29    25    1
    29    11     4    1
    30    18    12   ar
    31    21    22    1
    32    21    23    1
@<TRIPOS>MOLECULE
*****
 29 32 0 0 0
SMALL
GASTEIGER

@<TRIPOS>ATOM
      1 C          62.7901   90.7705   12.0027 C.3     1  UNL1        0.0518
      2 C          62.8323   89.2725   11.9360 C.ar    1  UNL1        0.0563
      3 N          63.3322   88.4834   13.1097 N.ar    1  UNL1       -0.2524
      4 C          63.3744   86.9855   13.0431 C.ar    1  UNL1        0.0830
      5 C          62.9167   86.2766   11.8029 C.ar    1  UNL1        0.0686
      6 C          62.4168   87.0657   10.6293 C.ar    1  UNL1        0.0048
      7 C          62.3746   88.5637   10.6959 C.ar    1  UNL1        0.0072
      8 C          63.0729   84.8018   12.0275 C.2     1  UNL1        0.2506
      9 O          62.7344   83.7197   11.0455 O.2     1  UNL1       -0.2699
     10 N          63.6271   84.5992   13.4065 N.am    1  UNL1       -0.2679
     11 C          63.8135   85.9487   14.0342 C.3     1  UNL1        0.1398
     12 C          61.9591   86.3570    9.3890 C.ar    1  UNL1        0.0106
     13 C          60.5093   86.3782    9.0049 C.ar    1  UNL1        0.0017
     14 C          60.0515   85.6695    7.7646 C.ar    1  UNL1        0.0114
     15 C          61.0436   84.9395    6.9086 C.ar    1  UNL1        0.0585
     16 CL         60.5858   84.2308    5.6684 Cl      1  UNL1       -0.0822
     17 C          62.4934   84.9183    7.2927 C.ar    1  UNL1        0.0228
     18 C          62.9512   85.6270    8.5330 C.ar    1  UNL1        0.0585
     19 CL         64.4010   85.6057    8.9171 Cl      1  UNL1       -0.0822
     20 C          61.8747   89.3529    9.5222 C.3     1  UNL1        0.0934
     21 N          60.4797   89.9041    9.5284 N.3     1  UNL1       -0.3174
     22 H          59.8101   89.1348    9.5145 H       1  UNL1        0.1192
     23 H          60.3418   90.4897    8.7048 H       1  UNL1        0.1192
     24 C          63.9401   83.2787   14.0457 C.3     1  UNL1        0.1235
     25 C          62.9754   82.1371   13.9197 C.3     1  UNL1        0.1351
     26 C          63.2333   80.8386   13.2144 C.3     1  UNL1        0.0339
     27 C          62.0008   79.9925   13.3357 C.3     1  UNL1        0.0346
     28 C          60.9810   80.7679   14.1160 C.3     1  UNL1        0.1422
     29 O          61.5834   82.0934   14.4770 O.3     1  UNL1       -0.3545
@<TRIPOS>BOND
     1     1     2    1
     2     2     3   ar
     3     3     4   ar
     4     4     5   ar
     5     5     6   ar
     6     6    12    1
     7    12    13   ar
     8    13    14   ar
     9    14    15   ar
    10    15    16    1
    11    15    17   ar
    12    17    18   ar
    13    18    19    1
    14     6     7   ar
    15     7    20    1
    16    20    21    1
    17     5     8    1
    18     8     9    2
    19     8    10   am
    20    10    24    1
    21    25    24    1
    22    25    26    1
    23    26    27    1
    24    27    28    1
    25    28    29    1
    26    10    11    1
    27     7     2   ar
    28    29    25    1
    29    11     4    1
    30    18    12   ar
    31    21    22    1
    32    21    23    1
@<TRIPOS>MOLECULE
*****
 29 32 0 0 0
SMALL
GASTEIGER

@<TRIPOS>ATOM
      1 C          63.1101   91.7251    2.9900 C.3     1  UNL1        0.0518
      2 C          62.4234   92.4000    1.8397 C.ar    1  UNL1        0.0563
      3 N          60.9271   92.3712    1.7380 N.ar    1  UNL1       -0.2524
      4 C          60.2405   93.0461    0.5878 C.ar    1  UNL1        0.0830
      5 C          61.0500   93.7498   -0.4608 C.ar    1  UNL1        0.0686
      6 C          62.5463   93.7786   -0.3591 C.ar    1  UNL1        0.0048
      7 C          63.2330   93.1037    0.7912 C.ar    1  UNL1        0.0072
      8 C          60.1016   94.3220   -1.4722 C.2     1  UNL1        0.2506
      9 O          60.4821   95.1065   -2.6928 O.2     1  UNL1       -0.2699
     10 N          58.7058   93.9719   -1.0487 N.am    1  UNL1       -0.2679
     11 C          58.7916   93.1834    0.2244 C.3     1  UNL1        0.1398
     12 C          63.3560   94.4822   -1.4076 C.ar    1  UNL1        0.0106
     13 C          63.7380   93.7637   -2.6677 C.ar    1  UNL1        0.0017
     14 C          64.5477   94.4673   -3.7162 C.ar    1  UNL1        0.0114
     15 C          64.9752   95.8894   -3.5047 C.ar    1  UNL1        0.0585
     16 CL         65.7849   96.5929   -4.5532 Cl      1  UNL1       -0.0822
     17 C          64.5931   96.6079   -2.2446 C.ar    1  UNL1        0.0228
     18 C          63.7835   95.9043   -1.1961 C.ar    1  UNL1        0.0585
     19 CL         63.4014   96.6229    0.0639 Cl      1  UNL1       -0.0822
     20 C          64.7293   93.1325    0.8929 C.3     1  UNL1        0.0934
     21 N          65.3969   94.0516    1.8724 N.3     1  UNL1       -0.3174
     22 H          65.2256   95.0199    1.6012 H       1  UNL1        0.1192
     23 H          66.4010   93.8724    1.8769 H       1  UNL1        0.1192
     24 C          57.4455   94.3449   -1.7715 C.3     1  UNL1        0.1235
     25 C          57.0809   93.6510   -3.0504 C.3     1  UNL1        0.1351
     26 C          57.6272   92.3382   -3.5279 C.3     1  UNL1        0.0339
     27 C          56.9900   92.0239   -4.8489 C.3     1  UNL1        0.0346
     28 C          56.0499   93.1425   -5.1880 C.3     1  UNL1        0.1422
     29 O          56.1061   94.1482   -4.0764 O.3     1  UNL1       -0.3545
@<TRIPOS>BOND
     1     1     2    1
     2     2     3   ar
     3     3     4   ar
     4     4     5   ar
     5     5     6   ar
     6     6    12    1
     7    12    13   ar
     8    13    14   ar
     9    14    15   ar
    10    15    16    1
    11    15    17   ar
    12    17    18   ar
    13    18    19    1
    14     6     7   ar
    15     7    20    1
    16    20    21    1
    17     5     8    1
    18     8     9    2
    19     8    10   am
    20    10    24    1
    21    25    24    1
    22    25    26    1
    23    26    27    1
    24    27    28    1
    25    28    29    1
    26    10    11    1
    27     7     2   ar
    28    29    25    1
    29    11     4    1
    30    18    12   ar
    31    21    22    1
    32    21    23    1
