@<TRIPOS>MOLECULE
*****
 21 23 0 0 0
SMALL
GASTEIGER

@<TRIPOS>ATOM
      1 C          66.3396   92.2491   13.5710 C.3     1  UNL1        0.0591
      2 C          65.6894   92.4689   12.2372 C.3     1  UNL1        0.0418
      3 C          64.5343   91.6100   11.8153 C.ar    1  UNL1       -0.0245
      4 C          63.8842   91.8298   10.4815 C.ar    1  UNL1       -0.0045
      5 C          62.7290   90.9709   10.0596 C.ar    1  UNL1       -0.0003
      6 C          62.2240   89.8923   10.9715 C.ar    1  UNL1       -0.0003
      7 C          62.8741   89.6726   12.3053 C.ar    1  UNL1       -0.0043
      8 C          64.0292   90.5314   12.7272 C.ar    1  UNL1       -0.0223
      9 C          64.6794   90.3117   14.0610 C.3     1  UNL1        0.0456
     10 C          65.8345   91.1705   14.4829 C.3     1  UNL1        0.0248
     11 C          64.1744   89.2331   14.9729 C.ar    1  UNL1       -0.0175
     12 C          63.3649   89.5926   16.1835 C.ar    1  UNL1       -0.0030
     13 C          62.8599   88.5140   17.0954 C.ar    1  UNL1        0.0119
     14 C          63.1644   87.0758   16.7967 C.ar    1  UNL1        0.0682
     15 CL         62.6593   85.9972   17.7086 Cl      1  UNL1       -0.0814
     16 C          63.9738   86.7164   15.5862 C.ar    1  UNL1        0.0679
     17 CL         64.2783   85.2783   15.2875 Cl      1  UNL1       -0.0814
     18 C          64.4789   87.7950   14.6743 C.ar    1  UNL1        0.0083
     19 C          67.6654   93.4792   15.4362 C.3     1  UNL1        0.0859
     20 N          67.4947   93.1080   13.9930 N.3     1  UNL1       -0.2971
     21 H          68.3441   92.6176   13.7126 H       1  UNL1        0.1233
@<TRIPOS>BOND
     1    19    20    1
     2     1    20    1
     3     1     2    1
     4     2     3    1
     5     3     4   ar
     6     4     5   ar
     7     5     6   ar
     8     6     7   ar
     9     7     8   ar
    10     8     9    1
    11     9    11    1
    12    11    12   ar
    13    12    13   ar
    14    13    14   ar
    15    14    15    1
    16    14    16   ar
    17    16    17    1
    18    16    18   ar
    19     9    10    1
    20    10     1    1
    21     8     3   ar
    22    18    11   ar
    23    20    21    1
@<TRIPOS>MOLECULE
*****
 21 23 0 0 0
SMALL
GASTEIGER

@<TRIPOS>ATOM
      1 C          62.3033   89.6199   11.2752 C.3     1  UNL1        0.0591
      2 C          61.3457   89.8792   10.1502 C.3     1  UNL1        0.0418
      3 C          60.7854   88.7319    9.3627 C.ar    1  UNL1       -0.0245
      4 C          59.8279   88.9912    8.2376 C.ar    1  UNL1       -0.0045
      5 C          59.2676   87.8441    7.4502 C.ar    1  UNL1       -0.0003
      6 C          59.6649   86.4376    7.7878 C.ar    1  UNL1       -0.0003
      7 C          60.6225   86.1783    8.9129 C.ar    1  UNL1       -0.0043
      8 C          61.1827   87.3255    9.7003 C.ar    1  UNL1       -0.0223
      9 C          62.1404   87.0662   10.8254 C.3     1  UNL1        0.0456
     10 C          62.7006   88.2134   11.6128 C.3     1  UNL1        0.0248
     11 C          62.5377   85.6598   11.1631 C.ar    1  UNL1       -0.0175
     12 C          63.1664   84.7866   10.1179 C.ar    1  UNL1       -0.0030
     13 C          63.5638   83.3801   10.4555 C.ar    1  UNL1        0.0119
     14 C          63.3323   82.8468   11.8383 C.ar    1  UNL1        0.0682
     15 CL         63.7297   81.4404   12.1760 Cl      1  UNL1       -0.0814
     16 C          62.7036   83.7200   12.8834 C.ar    1  UNL1        0.0679
     17 CL         62.4722   83.1867   14.2663 Cl      1  UNL1       -0.0814
     18 C          62.3063   85.1265   12.5458 C.ar    1  UNL1        0.0083
     19 C          63.7344   90.5038   13.2553 C.3     1  UNL1        0.0859
     20 N          62.8636   90.7671   12.0627 N.3     1  UNL1       -0.2971
     21 H          63.4150   91.3283   11.4136 H       1  UNL1        0.1233
@<TRIPOS>BOND
     1    19    20    1
     2     1    20    1
     3     1     2    1
     4     2     3    1
     5     3     4   ar
     6     4     5   ar
     7     5     6   ar
     8     6     7   ar
     9     7     8   ar
    10     8     9    1
    11     9    11    1
    12    11    12   ar
    13    12    13   ar
    14    13    14   ar
    15    14    15    1
    16    14    16   ar
    17    16    17    1
    18    16    18   ar
    19     9    10    1
    20    10     1    1
    21     8     3   ar
    22    18    11   ar
    23    20    21    1
@<TRIPOS>MOLECULE
*****
 21 23 0 0 0
SMALL
GASTEIGER

@<TRIPOS>ATOM
      1 C          64.1022   85.7110   14.3319 C.3     1  UNL1        0.0591
      2 C          64.5622   87.0610   14.7964 C.3     1  UNL1        0.0418
      3 C          64.2034   88.2871   14.0102 C.ar    1  UNL1       -0.0245
      4 C          64.6633   89.6372   14.4747 C.ar    1  UNL1       -0.0045
      5 C          64.3045   90.8631   13.6885 C.ar    1  UNL1       -0.0003
      6 C          63.4857   90.7391   12.4378 C.ar    1  UNL1       -0.0003
      7 C          63.0258   89.3891   11.9733 C.ar    1  UNL1       -0.0043
      8 C          63.3846   88.1631   12.7595 C.ar    1  UNL1       -0.0223
      9 C          62.9246   86.8130   12.2951 C.3     1  UNL1        0.0456
     10 C          63.2834   85.5870   13.0812 C.3     1  UNL1        0.0248
     11 C          62.1058   86.6889   11.0444 C.ar    1  UNL1       -0.0175
     12 C          60.7390   87.3034   10.9788 C.ar    1  UNL1       -0.0030
     13 C          59.9202   87.1794    9.7281 C.ar    1  UNL1        0.0119
     14 C          60.4682   86.4408    8.5430 C.ar    1  UNL1        0.0682
     15 CL         59.6494   86.3168    7.2923 Cl      1  UNL1       -0.0814
     16 C          61.8350   85.8264    8.6087 C.ar    1  UNL1        0.0679
     17 CL         62.3831   85.0879    7.4236 Cl      1  UNL1       -0.0814
     18 C          62.6538   85.9505    9.8594 C.ar    1  UNL1        0.0083
     19 C          63.6906   83.2136   14.9181 C.3     1  UNL1        0.0859
     20 N          64.4610   84.4849   15.1181 N.3     1  UNL1       -0.2971
     21 H          65.4364   84.2745   14.9066 H       1  UNL1        0.1233
@<TRIPOS>BOND
     1    19    20    1
     2     1    20    1
     3     1     2    1
     4     2     3    1
     5     3     4   ar
     6     4     5   ar
     7     5     6   ar
     8     6     7   ar
     9     7     8   ar
    10     8     9    1
    11     9    11    1
    12    11    12   ar
    13    12    13   ar
    14    13    14   ar
    15    14    15    1
    16    14    16   ar
    17    16    17    1
    18    16    18   ar
    19     9    10    1
    20    10     1    1
    21     8     3   ar
    22    18    11   ar
    23    20    21    1
@<TRIPOS>MOLECULE
*****
 21 23 0 0 0
SMALL
GASTEIGER

@<TRIPOS>ATOM
      1 C          66.3867   92.2570   14.8653 C.3     1  UNL1        0.0591
      2 C          65.3423   91.1995   14.6635 C.3     1  UNL1        0.0418
      3 C          64.6362   91.0847   13.3450 C.ar    1  UNL1       -0.0245
      4 C          63.5917   90.0272   13.1432 C.ar    1  UNL1       -0.0045
      5 C          62.8857   89.9124   11.8248 C.ar    1  UNL1       -0.0003
      6 C          63.2240   90.8551   10.7082 C.ar    1  UNL1       -0.0003
      7 C          64.2685   91.9126   10.9100 C.ar    1  UNL1       -0.0043
      8 C          64.9745   92.0274   12.2284 C.ar    1  UNL1       -0.0223
      9 C          66.0191   93.0849   12.4303 C.3     1  UNL1        0.0456
     10 C          66.7251   93.1997   13.7487 C.3     1  UNL1        0.0248
     11 C          66.3574   94.0277   11.3137 C.ar    1  UNL1       -0.0175
     12 C          65.9503   95.4689   11.3996 C.ar    1  UNL1       -0.0030
     13 C          66.2887   96.4116   10.2830 C.ar    1  UNL1        0.0119
     14 C          67.0342   95.9131    9.0805 C.ar    1  UNL1        0.0682
     15 CL         67.3726   96.8558    7.9639 Cl      1  UNL1       -0.0814
     16 C          67.4412   94.4720    8.9947 C.ar    1  UNL1        0.0679
     17 CL         68.1867   93.9735    7.7922 Cl      1  UNL1       -0.0814
     18 C          67.1029   93.5293   10.1113 C.ar    1  UNL1        0.0083
     19 C          68.5833   92.5358   16.2245 C.3     1  UNL1        0.0859
     20 N          67.0929   92.3718   16.1837 N.3     1  UNL1       -0.2971
     21 H          66.6945   93.1801   16.6617 H       1  UNL1        0.1233
@<TRIPOS>BOND
     1    19    20    1
     2     1    20    1
     3     1     2    1
     4     2     3    1
     5     3     4   ar
     6     4     5   ar
     7     5     6   ar
     8     6     7   ar
     9     7     8   ar
    10     8     9    1
    11     9    11    1
    12    11    12   ar
    13    12    13   ar
    14    13    14   ar
    15    14    15    1
    16    14    16   ar
    17    16    17    1
    18    16    18   ar
    19     9    10    1
    20    10     1    1
    21     8     3   ar
    22    18    11   ar
    23    20    21    1
@<TRIPOS>MOLECULE
*****
 21 23 0 0 0
SMALL
GASTEIGER

@<TRIPOS>ATOM
      1 C          60.1459   88.1826    8.5323 C.3     1  UNL1        0.0591
      2 C          60.5097   89.4685    9.2134 C.3     1  UNL1        0.0418
      3 C          61.4954   89.4657   10.3441 C.ar    1  UNL1       -0.0245
      4 C          61.8592   90.7517   11.0252 C.ar    1  UNL1       -0.0045
      5 C          62.8448   90.7488   12.1558 C.ar    1  UNL1       -0.0003
      6 C          63.4667   89.4600   12.6054 C.ar    1  UNL1       -0.0003
      7 C          63.1029   88.1740   11.9244 C.ar    1  UNL1       -0.0043
      8 C          62.1173   88.1769   10.7937 C.ar    1  UNL1       -0.0223
      9 C          61.7535   86.8909   10.1126 C.3     1  UNL1        0.0456
     10 C          60.7678   86.8937    8.9819 C.3     1  UNL1        0.0248
     11 C          62.3754   85.6020   10.5622 C.ar    1  UNL1       -0.0175
     12 C          63.1762   84.7789    9.5971 C.ar    1  UNL1       -0.0030
     13 C          63.7981   83.4900   10.0467 C.ar    1  UNL1        0.0119
     14 C          63.6191   83.0243   11.4614 C.ar    1  UNL1        0.0682
     15 CL         64.2410   81.7355   11.9110 Cl      1  UNL1       -0.0814
     16 C          62.8184   83.8474   12.4264 C.ar    1  UNL1        0.0679
     17 CL         62.6395   83.3817   13.8410 Cl      1  UNL1       -0.0814
     18 C          62.1965   85.1363   11.9768 C.ar    1  UNL1        0.0083
     19 C          59.0882   89.3606    6.4724 C.3     1  UNL1        0.0859
     20 N          59.1602   88.1854    7.4016 N.3     1  UNL1       -0.2971
     21 H          59.3684   87.3684    6.8275 H       1  UNL1        0.1233
@<TRIPOS>BOND
     1    19    20    1
     2     1    20    1
     3     1     2    1
     4     2     3    1
     5     3     4   ar
     6     4     5   ar
     7     5     6   ar
     8     6     7   ar
     9     7     8   ar
    10     8     9    1
    11     9    11    1
    12    11    12   ar
    13    12    13   ar
    14    13    14   ar
    15    14    15    1
    16    14    16   ar
    17    16    17    1
    18    16    18   ar
    19     9    10    1
    20    10     1    1
    21     8     3   ar
    22    18    11   ar
    23    20    21    1
@<TRIPOS>MOLECULE
*****
 21 23 0 0 0
SMALL
GASTEIGER

@<TRIPOS>ATOM
      1 C          60.6372   88.1024    9.1101 C.3     1  UNL1        0.0591
      2 C          61.0981   89.4022    9.7000 C.3     1  UNL1        0.0418
      3 C          62.0309   89.4039   10.8748 C.ar    1  UNL1       -0.0245
      4 C          62.4918   90.7037   11.4646 C.ar    1  UNL1       -0.0045
      5 C          63.4246   90.7053   12.6393 C.ar    1  UNL1       -0.0003
      6 C          63.8965   89.4071   13.2241 C.ar    1  UNL1       -0.0003
      7 C          63.4356   88.1073   12.6342 C.ar    1  UNL1       -0.0043
      8 C          62.5028   88.1057   11.4596 C.ar    1  UNL1       -0.0223
      9 C          62.0419   86.8058   10.8696 C.3     1  UNL1        0.0456
     10 C          61.1091   86.8042    9.6949 C.3     1  UNL1        0.0248
     11 C          62.5137   85.5076   11.4544 C.ar    1  UNL1       -0.0175
     12 C          62.3877   85.2592   12.9284 C.ar    1  UNL1       -0.0030
     13 C          62.8596   83.9610   13.5132 C.ar    1  UNL1        0.0119
     14 C          63.4575   82.9112   12.6240 C.ar    1  UNL1        0.0682
     15 CL         63.9293   81.6130   13.2088 Cl      1  UNL1       -0.0814
     16 C          63.5835   83.1596   11.1501 C.ar    1  UNL1        0.0679
     17 CL         64.1813   82.1098   10.2610 Cl      1  UNL1       -0.0814
     18 C          63.1116   84.4578   10.5653 C.ar    1  UNL1        0.0083
     19 C          58.9688   86.8475    7.5636 C.3     1  UNL1        0.0859
     20 N          59.7044   88.1007    7.9354 N.3     1  UNL1       -0.2971
     21 H          58.9981   88.8132    8.1193 H       1  UNL1        0.1233
@<TRIPOS>BOND
     1    19    20    1
     2     1    20    1
     3     1     2    1
     4     2     3    1
     5     3     4   ar
     6     4     5   ar
     7     5     6   ar
     8     6     7   ar
     9     7     8   ar
    10     8     9    1
    11     9    11    1
    12    11    12   ar
    13    12    13   ar
    14    13    14   ar
    15    14    15    1
    16    14    16   ar
    17    16    17    1
    18    16    18   ar
    19     9    10    1
    20    10     1    1
    21     8     3   ar
    22    18    11   ar
    23    20    21    1
@<TRIPOS>MOLECULE
*****
 21 23 0 0 0
SMALL
GASTEIGER

@<TRIPOS>ATOM
      1 C          63.8447   88.2250   13.4434 C.3     1  UNL1        0.0591
      2 C          63.1894   88.9243   12.2896 C.3     1  UNL1        0.0418
      3 C          62.4067   88.1362   11.2814 C.ar    1  UNL1       -0.0245
      4 C          61.7514   88.8355   10.1275 C.ar    1  UNL1       -0.0045
      5 C          60.9688   88.0474    9.1194 C.ar    1  UNL1       -0.0003
      6 C          60.8416   86.5599    9.2651 C.ar    1  UNL1       -0.0003
      7 C          61.4969   85.8606   10.4190 C.ar    1  UNL1       -0.0043
      8 C          62.2795   86.6487   11.4271 C.ar    1  UNL1       -0.0223
      9 C          62.9349   85.9494   12.5810 C.3     1  UNL1        0.0456
     10 C          63.7174   86.7375   13.5892 C.3     1  UNL1        0.0248
     11 C          62.8076   84.4619   12.7268 C.ar    1  UNL1       -0.0175
     12 C          62.3930   83.8698   14.0412 C.ar    1  UNL1       -0.0030
     13 C          62.2657   82.3824   14.1869 C.ar    1  UNL1        0.0119
     14 C          62.5531   81.4870   13.0182 C.ar    1  UNL1        0.0682
     15 CL         62.4259   79.9995   13.1639 Cl      1  UNL1       -0.0814
     16 C          62.9677   82.0790   11.7039 C.ar    1  UNL1        0.0679
     17 CL         63.2551   81.1836   10.5352 Cl      1  UNL1       -0.0814
     18 C          63.0950   83.5665   11.5582 C.ar    1  UNL1        0.0083
     19 C          64.8468   90.4829   14.2482 C.3     1  UNL1        0.0859
     20 N          64.6273   89.0131   14.4517 N.3     1  UNL1       -0.2971
     21 H          64.1465   88.9081   15.3451 H       1  UNL1        0.1233
@<TRIPOS>BOND
     1    19    20    1
     2     1    20    1
     3     1     2    1
     4     2     3    1
     5     3     4   ar
     6     4     5   ar
     7     5     6   ar
     8     6     7   ar
     9     7     8   ar
    10     8     9    1
    11     9    11    1
    12    11    12   ar
    13    12    13   ar
    14    13    14   ar
    15    14    15    1
    16    14    16   ar
    17    16    17    1
    18    16    18   ar
    19     9    10    1
    20    10     1    1
    21     8     3   ar
    22    18    11   ar
    23    20    21    1
@<TRIPOS>MOLECULE
*****
 21 23 0 0 0
SMALL
GASTEIGER

@<TRIPOS>ATOM
      1 C          63.6899   90.0396   13.1769 C.3     1  UNL1        0.0591
      2 C          64.2813   89.1027   14.1879 C.3     1  UNL1        0.0418
      3 C          64.1007   87.6215   14.0338 C.ar    1  UNL1       -0.0245
      4 C          64.6921   86.6846   15.0449 C.ar    1  UNL1       -0.0045
      5 C          64.5115   85.2036   14.8907 C.ar    1  UNL1       -0.0003
      6 C          63.7394   84.6594   13.7254 C.ar    1  UNL1       -0.0003
      7 C          63.1479   85.5964   12.7143 C.ar    1  UNL1       -0.0043
      8 C          63.3286   87.0774   12.8685 C.ar    1  UNL1       -0.0223
      9 C          62.7371   88.0144   11.8574 C.3     1  UNL1        0.0456
     10 C          62.9178   89.4955   12.0116 C.3     1  UNL1        0.0248
     11 C          61.9650   87.4703   10.6922 C.ar    1  UNL1       -0.0175
     12 C          60.5221   87.8380   10.5111 C.ar    1  UNL1       -0.0030
     13 C          59.7500   87.2939    9.3459 C.ar    1  UNL1        0.0119
     14 C          60.4209   86.3821    8.3617 C.ar    1  UNL1        0.0682
     15 CL         59.6488   85.8380    7.1964 Cl      1  UNL1       -0.0814
     16 C          61.8638   86.0144    8.5428 C.ar    1  UNL1        0.0679
     17 CL         62.5346   85.1026    7.5586 Cl      1  UNL1       -0.0814
     18 C          62.6358   86.5585    9.7080 C.ar    1  UNL1        0.0083
     19 C          65.1236   92.1791   12.8348 C.3     1  UNL1        0.0859
     20 N          63.8705   91.5207   13.3310 N.3     1  UNL1       -0.2971
     21 H          63.0919   91.9646   12.8439 H       1  UNL1        0.1233
@<TRIPOS>BOND
     1    19    20    1
     2     1    20    1
     3     1     2    1
     4     2     3    1
     5     3     4   ar
     6     4     5   ar
     7     5     6   ar
     8     6     7   ar
     9     7     8   ar
    10     8     9    1
    11     9    11    1
    12    11    12   ar
    13    12    13   ar
    14    13    14   ar
    15    14    15    1
    16    14    16   ar
    17    16    17    1
    18    16    18   ar
    19     9    10    1
    20    10     1    1
    21     8     3   ar
    22    18    11   ar
    23    20    21    1
@<TRIPOS>MOLECULE
*****
 21 23 0 0 0
SMALL
GASTEIGER

@<TRIPOS>ATOM
      1 C          65.1451   92.7799   10.7721 C.3     1  UNL1        0.0591
      2 C          65.5182   92.6890   12.2221 C.3     1  UNL1        0.0418
      3 C          64.8497   91.6787   13.1067 C.ar    1  UNL1       -0.0245
      4 C          65.2228   91.5878   14.5567 C.ar    1  UNL1       -0.0045
      5 C          64.5543   90.5775   15.4412 C.ar    1  UNL1       -0.0003
      6 C          63.5128   89.6580   14.8757 C.ar    1  UNL1       -0.0003
      7 C          63.1397   89.7489   13.4257 C.ar    1  UNL1       -0.0043
      8 C          63.8082   90.7592   12.5412 C.ar    1  UNL1       -0.0223
      9 C          63.4351   90.8501   11.0911 C.3     1  UNL1        0.0456
     10 C          64.1036   91.8604   10.2066 C.3     1  UNL1        0.0248
     11 C          62.3936   89.9306   10.5256 C.ar    1  UNL1       -0.0175
     12 C          60.9694   90.3884   10.4150 C.ar    1  UNL1       -0.0030
     13 C          59.9278   89.4690    9.8495 C.ar    1  UNL1        0.0119
     14 C          60.3105   88.0917    9.3946 C.ar    1  UNL1        0.0682
     15 CL         59.2690   87.1723    8.8291 Cl      1  UNL1       -0.0814
     16 C          61.7346   87.6340    9.5053 C.ar    1  UNL1        0.0679
     17 CL         62.1173   86.2568    9.0504 Cl      1  UNL1       -0.0814
     18 C          62.7762   88.5535   10.0708 C.ar    1  UNL1        0.0083
     19 C          67.2914   93.7119    9.6431 C.3     1  UNL1        0.0859
     20 N          65.8136   93.7902    9.8876 N.3     1  UNL1       -0.2971
     21 H          65.3606   93.7288    8.9757 H       1  UNL1        0.1233
@<TRIPOS>BOND
     1    19    20    1
     2     1    20    1
     3     1     2    1
     4     2     3    1
     5     3     4   ar
     6     4     5   ar
     7     5     6   ar
     8     6     7   ar
     9     7     8   ar
    10     8     9    1
    11     9    11    1
    12    11    12   ar
    13    12    13   ar
    14    13    14   ar
    15    14    15    1
    16    14    16   ar
    17    16    17    1
    18    16    18   ar
    19     9    10    1
    20    10     1    1
    21     8     3   ar
    22    18    11   ar
    23    20    21    1
