@<TRIPOS>MOLECULE
*****
 36 39 0 0 0
SMALL
GASTEIGER

@<TRIPOS>ATOM
      1 C          65.4828   92.4448   13.5023 C.2     1  UNL1        0.3041
      2 N          65.1249   91.7224   14.7672 N.2     1  UNL1       -0.0278
      3 C          64.0580   90.6682   14.7527 C.cat   1  UNL1        0.4630
      4 N          63.3490   90.3362   13.4731 N.2     1  UNL1        0.0345
      5 C          63.7069   91.0586   12.2082 C.2     1  UNL1        0.4308
      6 N          63.1845   90.9471   10.8066 N.2     1  UNL1        0.1957
      7 N          63.9285   91.9325    9.9549 N.2     1  UNL1        0.1895
      8 C          64.9108   92.6530   10.8302 C.2     1  UNL1        0.3751
      9 C          64.7738   92.1128   12.2228 C.3     1  UNL1        0.3187
     10 N          65.8628   93.7254   10.3900 N.pl3   1  UNL1       -0.1886
     11 C          65.4704   95.1688   10.5020 C.3     1  UNL1        0.2343
     12 C          66.4224   96.2412   10.0618 C.3     1  UNL1        0.1929
     13 O          67.7667   95.8701    9.5098 O.3     1  UNL1       -0.3451
     14 C          68.1592   94.4266    9.3978 C.3     1  UNL1        0.1886
     15 C          67.2072   93.3543    9.8379 C.3     1  UNL1        0.1896
     16 C          67.5997   91.9109    9.7260 C.3     1  UNL1        0.0534
     17 C          67.4434   93.6453   14.7127 C.3     1  UNL1        0.2554
     18 O          66.5497   93.4991   13.5169 O.2     1  UNL1       -0.4467
     19 N          63.7001   89.9458   16.0177 N.pl3   1  UNL1       -0.2155
     20 H          63.5062   90.4553   16.8375 H       1  UNL1        0.2462
     21 C          63.6375   88.4472   16.0336 C.3     1  UNL1        0.1312
     22 C          64.3001   87.6573   14.9440 C.3     1  UNL1        0.0384
     23 C          64.2375   86.1587   14.9599 C.3     1  UNL1        0.0206
     24 C          63.5124   85.4499   16.0653 C.3     1  UNL1        0.0753
     25 C          62.8499   86.2398   17.1548 C.3     1  UNL1        0.0206
     26 C          62.9124   87.7384   17.1389 C.3     1  UNL1        0.0384
     27 N          63.4498   83.9513   16.0812 N.3     1  UNL1       -0.1847
     28 H          62.8773   83.6890   16.8836 H       1  UNL1        0.1484
     29 S          62.9014   83.2110   14.8975 S.O2    1  UNL1        0.0407
     30 O          64.1409   82.3675   14.8508 O.2     1  UNL1       -0.1575
     31 O          61.6620   84.0545   14.9441 O.2     1  UNL1       -0.1575
     32 C          62.3531   82.4707   13.7137 C.3     1  UNL1        0.1688
     33 C          63.2222   82.2209   12.5170 C.3     1  UNL1        0.0270
     34 C          63.3186   83.2520   11.4318 C.3     1  UNL1        0.0018
     35 C          62.5298   84.5239   11.5334 C.3     1  UNL1        0.0001
     36 C          64.2037   83.0112   10.2449 C.3     1  UNL1        0.0001
@<TRIPOS>BOND
     1    17    18    1
     2    18     1    1
     3     1     2    2
     4     2     3    1
     5     3    19    1
     6    21    19    1
     7    21    22    1
     8    22    23    1
     9    23    24    1
    10    24    27    1
    11    27    29    1
    12    29    30    2
    13    29    31    2
    14    29    32    1
    15    32    33    1
    16    33    34    1
    17    34    35    1
    18    34    36    1
    19    24    25    1
    20    25    26    1
    21     3     4    2
    22     4     5    1
    23     5     6    2
    24     6     7    1
    25     7     8    2
    26     8    10    1
    27    10    11    1
    28    11    12    1
    29    12    13    1
    30    13    14    1
    31    14    15    1
    32    15    16    1
    33     8     9    1
    34     9     1    1
    35    26    21    1
    36     9     5    1
    37    15    10    1
    38    19    20    1
    39    27    28    1
@<TRIPOS>MOLECULE
*****
 36 39 0 0 0
SMALL
GASTEIGER

@<TRIPOS>ATOM
      1 C          64.5247   91.8008   12.5748 C.2     1  UNL1        0.3041
      2 N          63.6984   90.8520   13.3914 N.2     1  UNL1       -0.0278
      3 C          63.9300   90.7361   14.8688 C.cat   1  UNL1        0.4630
      4 N          64.9881   91.5691   15.5297 N.2     1  UNL1        0.0345
      5 C          65.8144   92.5179   14.7131 C.2     1  UNL1        0.4308
      6 N          66.9207   93.4604   15.0842 N.2     1  UNL1        0.1957
      7 N          67.3728   94.1589   13.8361 N.2     1  UNL1        0.1895
      8 C          66.5459   93.6480   12.6936 C.2     1  UNL1        0.3751
      9 C          65.5827   92.6338   13.2357 C.3     1  UNL1        0.3187
     10 N          66.6617   94.0761   11.2607 N.pl3   1  UNL1       -0.1886
     11 C          66.0139   95.3494   10.8037 C.3     1  UNL1        0.2343
     12 C          66.1297   95.7776    9.3707 C.3     1  UNL1        0.1929
     13 O          66.8934   94.9325    8.3949 O.3     1  UNL1       -0.3451
     14 C          67.5414   93.6591    8.8519 C.3     1  UNL1        0.1886
     15 C          67.4255   93.2309   10.2848 C.3     1  UNL1        0.1896
     16 C          68.0734   91.9576   10.7418 C.3     1  UNL1        0.0534
     17 C          63.1584   91.1746   10.4556 C.3     1  UNL1        0.2554
     18 O          64.2930   91.9167   11.0973 O.2     1  UNL1       -0.4467
     19 N          63.1036   89.7872   15.6854 N.pl3   1  UNL1       -0.2155
     20 H          62.3540   90.1269   16.2257 H       1  UNL1        0.2462
     21 C          63.4195   88.3208   15.6789 C.3     1  UNL1        0.1312
     22 C          64.2101   87.7290   14.5499 C.3     1  UNL1        0.0384
     23 C          64.5260   86.2626   14.5434 C.3     1  UNL1        0.0206
     24 C          64.0512   85.3881   15.6658 C.3     1  UNL1        0.0753
     25 C          63.2606   85.9800   16.7948 C.3     1  UNL1        0.0206
     26 C          62.9448   87.4464   16.8013 C.3     1  UNL1        0.0384
     27 N          64.3671   83.9217   15.6593 N.3     1  UNL1       -0.1847
     28 H          63.9684   83.5309   16.5130 H       1  UNL1        0.1484
     29 S          63.8963   83.0582   14.5268 S.O2    1  UNL1        0.0407
     30 O          65.1646   83.3466   13.7797 O.2     1  UNL1       -0.1575
     31 O          62.6280   82.7698   15.2739 O.2     1  UNL1       -0.1575
     32 C          63.4255   82.1947   13.3942 C.3     1  UNL1        0.1688
     33 C          62.4888   82.7532   12.3644 C.3     1  UNL1        0.0270
     34 C          62.9790   83.7723   11.3789 C.3     1  UNL1        0.0018
     35 C          62.5041   85.1923   11.4694 C.3     1  UNL1        0.0001
     36 C          63.9440   83.3714   10.3028 C.3     1  UNL1        0.0001
@<TRIPOS>BOND
     1    17    18    1
     2    18     1    1
     3     1     2    2
     4     2     3    1
     5     3    19    1
     6    21    19    1
     7    21    22    1
     8    22    23    1
     9    23    24    1
    10    24    27    1
    11    27    29    1
    12    29    30    2
    13    29    31    2
    14    29    32    1
    15    32    33    1
    16    33    34    1
    17    34    35    1
    18    34    36    1
    19    24    25    1
    20    25    26    1
    21     3     4    2
    22     4     5    1
    23     5     6    2
    24     6     7    1
    25     7     8    2
    26     8    10    1
    27    10    11    1
    28    11    12    1
    29    12    13    1
    30    13    14    1
    31    14    15    1
    32    15    16    1
    33     8     9    1
    34     9     1    1
    35    26    21    1
    36     9     5    1
    37    15    10    1
    38    19    20    1
    39    27    28    1
@<TRIPOS>MOLECULE
*****
 36 39 0 0 0
SMALL
GASTEIGER

@<TRIPOS>ATOM
      1 C          62.7965   86.3312   12.0645 C.2     1  UNL1        0.3041
      2 N          62.5509   87.8108   12.0432 N.2     1  UNL1       -0.0278
      3 C          63.1655   88.6882   13.0930 C.cat   1  UNL1        0.4630
      4 N          64.0257   88.0861   14.1643 N.2     1  UNL1        0.0345
      5 C          64.2713   86.6065   14.1856 C.2     1  UNL1        0.4308
      6 N          65.0684   85.7346   15.1100 N.2     1  UNL1        0.1957
      7 N          64.9464   84.3183   14.6314 N.2     1  UNL1        0.1895
      8 C          64.0739   84.3148   13.4112 C.2     1  UNL1        0.3751
      9 C          63.6567   85.7290   13.1357 C.3     1  UNL1        0.3187
     10 N          63.6867   83.1089   12.6077 N.pl3   1  UNL1       -0.1886
     11 C          64.2352   82.9218   11.2242 C.3     1  UNL1        0.2343
     12 C          63.8479   81.7158   10.4205 C.3     1  UNL1        0.1929
     13 O          62.9123   80.6970   11.0005 O.3     1  UNL1       -0.3451
     14 C          62.3638   80.8841   12.3841 C.3     1  UNL1        0.1886
     15 C          62.7509   82.0900   13.1876 C.3     1  UNL1        0.1896
     16 C          62.2025   82.2771   14.5711 C.3     1  UNL1        0.0534
     17 C          61.3623   86.0613    9.9150 C.3     1  UNL1        0.2554
     18 O          62.1818   85.4537   11.0146 O.2     1  UNL1       -0.4467
     19 N          62.9199   90.1679   13.0717 N.pl3   1  UNL1       -0.2155
     20 H          62.0462   90.5259   13.3504 H       1  UNL1        0.2462
     21 C          64.0056   91.1020   12.6259 C.3     1  UNL1        0.1312
     22 C          65.1035   91.4829   13.5742 C.3     1  UNL1        0.0384
     23 C          66.1892   92.4170   13.1284 C.3     1  UNL1        0.0206
     24 C          66.1770   92.9702   11.7342 C.3     1  UNL1        0.0753
     25 C          65.0790   92.5892   10.7858 C.3     1  UNL1        0.0206
     26 C          63.9933   91.6551   11.2316 C.3     1  UNL1        0.0384
     27 N          67.2626   93.9043   11.2882 N.3     1  UNL1       -0.1847
     28 H          68.1493   93.4379   11.4796 H       1  UNL1        0.1484
     29 S          67.3153   94.3665    9.8622 S.O2    1  UNL1        0.0407
     30 O          67.1220   95.7836   10.3143 O.2     1  UNL1       -0.1575
     31 O          67.5087   92.9494    9.4100 O.2     1  UNL1       -0.1575
     32 C          67.3680   94.8287    8.4361 C.3     1  UNL1        0.1688
     33 C          67.0698   96.2598    8.1001 C.3     1  UNL1        0.0270
     34 C          65.7090   96.6450    7.6004 C.3     1  UNL1        0.0018
     35 C          65.4750   96.8331    6.1307 C.3     1  UNL1        0.0001
     36 C          64.5819   96.8420    8.5704 C.3     1  UNL1        0.0001
@<TRIPOS>BOND
     1    17    18    1
     2    18     1    1
     3     1     2    2
     4     2     3    1
     5     3    19    1
     6    21    19    1
     7    21    22    1
     8    22    23    1
     9    23    24    1
    10    24    27    1
    11    27    29    1
    12    29    30    2
    13    29    31    2
    14    29    32    1
    15    32    33    1
    16    33    34    1
    17    34    35    1
    18    34    36    1
    19    24    25    1
    20    25    26    1
    21     3     4    2
    22     4     5    1
    23     5     6    2
    24     6     7    1
    25     7     8    2
    26     8    10    1
    27    10    11    1
    28    11    12    1
    29    12    13    1
    30    13    14    1
    31    14    15    1
    32    15    16    1
    33     8     9    1
    34     9     1    1
    35    26    21    1
    36     9     5    1
    37    15    10    1
    38    19    20    1
    39    27    28    1
@<TRIPOS>MOLECULE
*****
 36 39 0 0 0
SMALL
GASTEIGER

@<TRIPOS>ATOM
      1 C          64.3502   90.1574   12.9487 C.2     1  UNL1        0.3041
      2 N          63.3676   89.2338   12.2920 N.2     1  UNL1       -0.0278
      3 C          62.8041   89.5737   10.9441 C.cat   1  UNL1        0.4630
      4 N          63.2232   90.8372   10.2528 N.2     1  UNL1        0.0345
      5 C          64.2059   91.7608   10.9095 C.2     1  UNL1        0.4308
      6 N          64.8015   93.0668   10.4739 N.2     1  UNL1        0.1957
      7 N          65.7331   93.5340   11.5527 N.2     1  UNL1        0.1895
      8 C          65.7133   92.5168   12.6550 C.2     1  UNL1        0.3751
      9 C          64.7694   91.4209   12.2574 C.3     1  UNL1        0.3187
     10 N          66.4994   92.5838   13.9307 N.pl3   1  UNL1       -0.1886
     11 C          65.8221   92.9806   15.2090 C.3     1  UNL1        0.2343
     12 C          66.6081   93.0477   16.4848 C.3     1  UNL1        0.1929
     13 O          68.0714   92.7179   16.4824 O.3     1  UNL1       -0.3451
     14 C          68.7486   92.3211   15.2041 C.3     1  UNL1        0.1886
     15 C          67.9627   92.2541   13.9283 C.3     1  UNL1        0.1896
     16 C          68.6399   91.8573   12.6501 C.3     1  UNL1        0.0534
     17 C          64.0007   89.6832   15.4791 C.3     1  UNL1        0.2554
     18 O          64.9137   89.8175   14.2966 O.2     1  UNL1       -0.4467
     19 N          61.8213   88.6500   10.2874 N.pl3   1  UNL1       -0.2155
     20 H          60.9988   89.0117    9.8852 H       1  UNL1        0.2462
     21 C          62.0919   87.1752   10.2436 C.3     1  UNL1        0.1312
     22 C          61.8487   86.3317   11.4599 C.3     1  UNL1        0.0384
     23 C          62.1193   84.8569   11.4161 C.3     1  UNL1        0.0206
     24 C          62.6330   84.2257   10.1561 C.3     1  UNL1        0.0753
     25 C          62.8762   85.0693    8.9398 C.3     1  UNL1        0.0206
     26 C          62.6057   86.5441    8.9836 C.3     1  UNL1        0.0384
     27 N          62.9036   82.7510   10.1122 N.3     1  UNL1       -0.1847
     28 H          63.4650   82.5793    9.2780 H       1  UNL1        0.1484
     29 S          63.6105   82.0839   11.2547 S.O2    1  UNL1        0.0407
     30 O          62.3256   81.4290   11.6672 O.2     1  UNL1       -0.1575
     31 O          64.8953   82.7388   10.8422 O.2     1  UNL1       -0.1575
     32 C          64.3174   81.4168   12.3972 C.3     1  UNL1        0.1688
     33 C          63.8752   81.6763   13.8069 C.3     1  UNL1        0.0270
     34 C          63.6883   83.0850   14.2870 C.3     1  UNL1        0.0018
     35 C          64.8149   84.0697   14.1799 C.3     1  UNL1        0.0001
     36 C          62.3749   83.5092   14.8743 C.3     1  UNL1        0.0001
@<TRIPOS>BOND
     1    17    18    1
     2    18     1    1
     3     1     2    2
     4     2     3    1
     5     3    19    1
     6    21    19    1
     7    21    22    1
     8    22    23    1
     9    23    24    1
    10    24    27    1
    11    27    29    1
    12    29    30    2
    13    29    31    2
    14    29    32    1
    15    32    33    1
    16    33    34    1
    17    34    35    1
    18    34    36    1
    19    24    25    1
    20    25    26    1
    21     3     4    2
    22     4     5    1
    23     5     6    2
    24     6     7    1
    25     7     8    2
    26     8    10    1
    27    10    11    1
    28    11    12    1
    29    12    13    1
    30    13    14    1
    31    14    15    1
    32    15    16    1
    33     8     9    1
    34     9     1    1
    35    26    21    1
    36     9     5    1
    37    15    10    1
    38    19    20    1
    39    27    28    1
@<TRIPOS>MOLECULE
*****
 36 39 0 0 0
SMALL
GASTEIGER

@<TRIPOS>ATOM
      1 C          62.4845   88.5785   11.4897 C.2     1  UNL1        0.3041
      2 N          63.1599   89.4472   12.5091 N.2     1  UNL1       -0.0278
      3 C          63.8953   88.8227   13.6576 C.cat   1  UNL1        0.4630
      4 N          63.9554   87.3294   13.7868 N.2     1  UNL1        0.0345
      5 C          63.2800   86.4608   12.7673 C.2     1  UNL1        0.4308
      6 N          63.1695   84.9709   12.6334 N.2     1  UNL1        0.1957
      7 N          62.3657   84.6746   11.4021 N.2     1  UNL1        0.1895
      8 C          61.9795   85.9814   10.7750 C.2     1  UNL1        0.3751
      9 C          62.5446   87.0853   11.6188 C.3     1  UNL1        0.3187
     10 N          61.1702   86.1539    9.5239 N.pl3   1  UNL1       -0.1886
     11 C          59.8440   86.8524    9.5789 C.3     1  UNL1        0.2343
     12 C          59.0346   87.0249    8.3277 C.3     1  UNL1        0.1929
     13 O          59.5517   86.4990    7.0216 O.3     1  UNL1       -0.3451
     14 C          60.8780   85.8004    6.9667 C.3     1  UNL1        0.1886
     15 C          61.6873   85.6279    8.2177 C.3     1  UNL1        0.1896
     16 C          63.0136   84.9294    8.1627 C.3     1  UNL1        0.0534
     17 C          60.7731   90.3144   10.5909 C.3     1  UNL1        0.2554
     18 O          61.7491   89.2031   10.3412 O.2     1  UNL1       -0.4467
     19 N          64.5707   89.6915   14.6771 N.pl3   1  UNL1       -0.2155
     20 H          64.6400   89.3906   15.6119 H       1  UNL1        0.2462
     21 C          65.1405   91.0187   14.2722 C.3     1  UNL1        0.1312
     22 C          66.0283   91.7733   15.2167 C.3     1  UNL1        0.0384
     23 C          66.5981   93.1005   14.8118 C.3     1  UNL1        0.0206
     24 C          66.2801   93.6730   13.4624 C.3     1  UNL1        0.0753
     25 C          65.3923   92.9183   12.5178 C.3     1  UNL1        0.0206
     26 C          64.8225   91.5912   12.9227 C.3     1  UNL1        0.0384
     27 N          66.8499   95.0002   13.0574 N.3     1  UNL1       -0.1847
     28 H          67.8591   94.8754   12.9774 H       1  UNL1        0.1484
     29 S          66.3929   95.6568   11.7885 S.O2    1  UNL1        0.0407
     30 O          65.8610   96.8150   12.5793 O.2     1  UNL1       -0.1575
     31 O          66.9248   94.4985   10.9976 O.2     1  UNL1       -0.1575
     32 C          65.9360   96.3133   10.5196 C.3     1  UNL1        0.1688
     33 C          66.9296   96.6408    9.4447 C.3     1  UNL1        0.0270
     34 C          66.7560   96.0765    8.0657 C.3     1  UNL1        0.0018
     35 C          66.0029   96.8533    7.0267 C.3     1  UNL1        0.0001
     36 C          67.3355   94.7354    7.7257 C.3     1  UNL1        0.0001
@<TRIPOS>BOND
     1    17    18    1
     2    18     1    1
     3     1     2    2
     4     2     3    1
     5     3    19    1
     6    21    19    1
     7    21    22    1
     8    22    23    1
     9    23    24    1
    10    24    27    1
    11    27    29    1
    12    29    30    2
    13    29    31    2
    14    29    32    1
    15    32    33    1
    16    33    34    1
    17    34    35    1
    18    34    36    1
    19    24    25    1
    20    25    26    1
    21     3     4    2
    22     4     5    1
    23     5     6    2
    24     6     7    1
    25     7     8    2
    26     8    10    1
    27    10    11    1
    28    11    12    1
    29    12    13    1
    30    13    14    1
    31    14    15    1
    32    15    16    1
    33     8     9    1
    34     9     1    1
    35    26    21    1
    36     9     5    1
    37    15    10    1
    38    19    20    1
    39    27    28    1
