@<TRIPOS>MOLECULE
*****
 35 38 0 0 0
SMALL
GASTEIGER

@<TRIPOS>ATOM
      1 C          60.8849   89.4453   11.0835 C.3     1  UNL1        0.1525
      2 C          60.7590   90.0381   12.4557 C.3     1  UNL1        0.0452
      3 C          59.5275   89.6862   11.6748 C.3     1  UNL1        0.0452
      4 C          60.8203   85.4542    7.7568 C.3     1  UNL1        0.0192
      5 C          60.4597   86.8708    8.0933 C.3     1  UNL1        0.0797
      6 C          59.7063   87.7085    7.1030 C.3     1  UNL1        0.0178
      7 C          59.3458   89.1251    7.4395 C.3     1  UNL1        0.0030
      8 C          59.7386   89.7040    8.7663 C.3     1  UNL1        0.0213
      9 C          60.4920   88.8664    9.7566 C.3     1  UNL1        0.1160
     10 N          60.8525   87.4498    9.4201 N.3     1  UNL1       -0.1549
     11 S          61.6060   86.6121   10.4105 S.O2    1  UNL1        0.0633
     12 O          62.7921   86.5937    9.4925 O.2     1  UNL1       -0.1528
     13 O          60.7342   86.4458   11.4277 O.2     1  UNL1       -0.1528
     14 C          62.3594   85.7745   11.4008 C.ar    1  UNL1        0.1223
     15 C          63.0279   86.4229   12.5767 C.ar    1  UNL1        0.0208
     16 C          63.7813   85.5853   13.5670 C.ar    1  UNL1        0.0128
     17 C          63.8663   84.0993   13.3814 C.ar    1  UNL1        0.0578
     18 CL         64.6197   83.2617   14.3717 Cl      1  UNL1       -0.0822
     19 C          63.1978   83.4508   12.2056 C.ar    1  UNL1        0.0128
     20 C          62.4444   84.2884   11.2152 C.ar    1  UNL1        0.0208
     21 O          62.3786   89.4055   10.9529 O.3     1  UNL1       -0.4404
     22 C          63.1541   90.6826   10.8196 C.2     1  UNL1        0.4048
     23 O          62.9751   91.5455    9.6058 O.2     1  UNL1       -0.2262
     24 N          64.1085   91.0968   11.9001 N.am    1  UNL1       -0.2432
     25 C          64.2875   90.2339   13.1139 C.3     1  UNL1        0.1141
     26 C          65.2420   90.6481   14.1945 C.3     1  UNL1        0.0940
     27 N          66.0174   91.9251   14.0612 N.3     1  UNL1       -0.2699
     28 C          65.8384   92.7880   12.8474 C.3     1  UNL1        0.0940
     29 C          64.8840   92.3739   11.7668 C.3     1  UNL1        0.1141
     30 C          66.9718   92.3393   15.1417 C.3     1  UNL1        0.0726
     31 C          68.1266   92.0889   14.2178 C.3     1  UNL1        0.0186
     32 C          65.8170   92.5897   16.0657 C.3     1  UNL1        0.0186
     33 C          67.9262   92.7535   16.2222 C.3     1  UNL1        0.1516
     34 O          68.7249   94.0146   16.0745 O.3     1  UNL1       -0.3806
     35 H          69.3470   93.9187   15.3365 H       1  UNL1        0.2105
@<TRIPOS>BOND
     1     5     4    1
     2     5     6    1
     3     6     7    1
     4     7     8    1
     5     8     9    1
     6     9     1    1
     7     1    21    1
     8    21    22    1
     9    22    23    2
    10    22    24   am
    11    24    25    1
    12    25    26    1
    13    26    27    1
    14    27    30    1
    15    30    31    1
    16    30    32    1
    17    30    33    1
    18    33    34    1
    19    27    28    1
    20    28    29    1
    21     1     2    1
    22     2     3    1
    23     9    10    1
    24    10    11    1
    25    11    12    2
    26    11    13    2
    27    11    14    1
    28    14    15   ar
    29    15    16   ar
    30    16    17   ar
    31    17    18    1
    32    17    19   ar
    33    19    20   ar
    34    10     5    1
    35    20    14   ar
    36     3     1    1
    37    29    24    1
    38    34    35    1
@<TRIPOS>MOLECULE
*****
 35 38 0 0 0
SMALL
GASTEIGER

@<TRIPOS>ATOM
      1 C          62.0729   89.8523   11.6088 C.3     1  UNL1        0.1525
      2 C          60.6382   89.4197   11.5421 C.3     1  UNL1        0.0452
      3 C          60.9921   90.8697   11.3924 C.3     1  UNL1        0.0452
      4 C          66.3423   91.6752   13.9432 C.3     1  UNL1        0.0192
      5 C          65.4123   91.6574   12.7664 C.3     1  UNL1        0.0797
      6 C          65.6869   92.5334   11.5802 C.3     1  UNL1        0.0178
      7 C          64.7569   92.5156   10.4034 C.3     1  UNL1        0.0030
      8 C          63.5522   91.6220   10.4130 C.3     1  UNL1        0.0213
      9 C          63.2776   90.7461   11.5992 C.3     1  UNL1        0.1160
     10 N          64.2076   90.7638   12.7760 N.3     1  UNL1       -0.1549
     11 S          63.9330   89.8878   13.9623 S.O2    1  UNL1        0.0633
     12 O          63.1706   91.0050   14.6107 O.2     1  UNL1       -0.1528
     13 O          64.5389   88.7214   13.6543 O.2     1  UNL1       -0.1528
     14 C          63.6583   89.0119   15.1486 C.ar    1  UNL1        0.1223
     15 C          63.1025   89.6076   16.4081 C.ar    1  UNL1        0.0208
     16 C          62.8278   88.7317   17.5943 C.ar    1  UNL1        0.0128
     17 C          63.1089   87.2600   17.5212 C.ar    1  UNL1        0.0578
     18 CL         62.8342   86.3841   18.7075 Cl      1  UNL1       -0.0822
     19 C          63.6647   86.6643   16.2618 C.ar    1  UNL1        0.0128
     20 C          63.9394   87.5403   15.0754 C.ar    1  UNL1        0.0208
     21 O          62.7354   88.5247   11.8286 O.3     1  UNL1       -0.4404
     22 C          62.5431   87.4170   10.8354 C.2     1  UNL1        0.4048
     23 O          62.3034   87.7389    9.3901 O.2     1  UNL1       -0.2262
     24 N          62.5905   85.9877   11.2876 N.am    1  UNL1       -0.2432
     25 C          62.8302   85.6658   12.7329 C.3     1  UNL1        0.1141
     26 C          62.8776   84.2363   13.1851 C.3     1  UNL1        0.0940
     27 N          62.6853   83.1288   12.1920 N.3     1  UNL1       -0.2699
     28 C          62.4456   83.4505   10.7467 C.3     1  UNL1        0.0940
     29 C          62.3982   84.8800   10.2945 C.3     1  UNL1        0.1141
     30 C          62.7328   81.6993   12.6442 C.3     1  UNL1        0.0726
     31 C          62.3686   82.1271   14.0350 C.3     1  UNL1        0.0186
     32 C          63.0969   81.2716   11.2534 C.3     1  UNL1        0.0186
     33 C          62.7802   80.2699   13.0963 C.3     1  UNL1        0.1516
     34 O          63.1444   79.9434   14.5143 O.3     1  UNL1       -0.3806
     35 H          64.0666   80.1960   14.6776 H       1  UNL1        0.2105
@<TRIPOS>BOND
     1     5     4    1
     2     5     6    1
     3     6     7    1
     4     7     8    1
     5     8     9    1
     6     9     1    1
     7     1    21    1
     8    21    22    1
     9    22    23    2
    10    22    24   am
    11    24    25    1
    12    25    26    1
    13    26    27    1
    14    27    30    1
    15    30    31    1
    16    30    32    1
    17    30    33    1
    18    33    34    1
    19    27    28    1
    20    28    29    1
    21     1     2    1
    22     2     3    1
    23     9    10    1
    24    10    11    1
    25    11    12    2
    26    11    13    2
    27    11    14    1
    28    14    15   ar
    29    15    16   ar
    30    16    17   ar
    31    17    18    1
    32    17    19   ar
    33    19    20   ar
    34    10     5    1
    35    20    14   ar
    36     3     1    1
    37    29    24    1
    38    34    35    1
@<TRIPOS>MOLECULE
*****
 35 38 0 0 0
SMALL
GASTEIGER

@<TRIPOS>ATOM
      1 C          61.0618   89.3587   11.3973 C.3     1  UNL1        0.1525
      2 C          60.9566   89.8828   12.7989 C.3     1  UNL1        0.0452
      3 C          59.7136   89.6130   12.0037 C.3     1  UNL1        0.0452
      4 C          60.8461   85.5455    7.8742 C.3     1  UNL1        0.0192
      5 C          60.5412   86.9566    8.2815 C.3     1  UNL1        0.0797
      6 C          59.8236   87.8721    7.3345 C.3     1  UNL1        0.0178
      7 C          59.5188   89.2832    7.7418 C.3     1  UNL1        0.0030
      8 C          59.9315   89.7787    9.0960 C.3     1  UNL1        0.0213
      9 C          60.6491   88.8632   10.0430 C.3     1  UNL1        0.1160
     10 N          60.9539   87.4521    9.6357 N.3     1  UNL1       -0.1549
     11 S          61.6716   86.5366   10.5828 S.O2    1  UNL1        0.0633
     12 O          62.8257   86.4540    9.6284 O.2     1  UNL1       -0.1528
     13 O          60.8199   86.4093   11.6225 O.2     1  UNL1       -0.1528
     14 C          62.3892   85.6211   11.5298 C.ar    1  UNL1        0.1223
     15 C          63.0503   86.1783   12.7555 C.ar    1  UNL1        0.0208
     16 C          63.7680   85.2628   13.7025 C.ar    1  UNL1        0.0128
     17 C          63.8245   83.7900   13.4238 C.ar    1  UNL1        0.0578
     18 CL         64.5421   82.8745   14.3708 Cl      1  UNL1       -0.0822
     19 C          63.1634   83.2327   12.1982 C.ar    1  UNL1        0.0128
     20 C          62.4457   84.1483   11.2511 C.ar    1  UNL1        0.0208
     21 O          62.5534   89.2766   11.2612 O.3     1  UNL1       -0.4404
     22 C          63.4365   89.9689   12.2566 C.2     1  UNL1        0.4048
     23 O          63.5515   89.4374   13.6545 O.2     1  UNL1       -0.2262
     24 N          64.2047   91.1927   11.8540 N.am    1  UNL1       -0.2432
     25 C          64.0898   91.7242   10.4560 C.3     1  UNL1        0.1141
     26 C          64.8580   92.9481   10.0534 C.3     1  UNL1        0.0940
     27 N          65.7411   93.6404   11.0487 N.3     1  UNL1       -0.2699
     28 C          65.8561   93.1090   12.4466 C.3     1  UNL1        0.0940
     29 C          65.0879   91.8851   12.8493 C.3     1  UNL1        0.1141
     30 C          66.5094   94.8643   10.6461 C.3     1  UNL1        0.0726
     31 C          66.9379   94.1796    9.3822 C.3     1  UNL1        0.0186
     32 C          66.0807   95.5489   11.9100 C.3     1  UNL1        0.0186
     33 C          67.2775   96.0881   10.2436 C.3     1  UNL1        0.1516
     34 O          67.8311   96.2029    8.8542 O.3     1  UNL1       -0.3806
     35 H          68.5174   95.5300    8.7229 H       1  UNL1        0.2105
@<TRIPOS>BOND
     1     5     4    1
     2     5     6    1
     3     6     7    1
     4     7     8    1
     5     8     9    1
     6     9     1    1
     7     1    21    1
     8    21    22    1
     9    22    23    2
    10    22    24   am
    11    24    25    1
    12    25    26    1
    13    26    27    1
    14    27    30    1
    15    30    31    1
    16    30    32    1
    17    30    33    1
    18    33    34    1
    19    27    28    1
    20    28    29    1
    21     1     2    1
    22     2     3    1
    23     9    10    1
    24    10    11    1
    25    11    12    2
    26    11    13    2
    27    11    14    1
    28    14    15   ar
    29    15    16   ar
    30    16    17   ar
    31    17    18    1
    32    17    19   ar
    33    19    20   ar
    34    10     5    1
    35    20    14   ar
    36     3     1    1
    37    29    24    1
    38    34    35    1
@<TRIPOS>MOLECULE
*****
 35 38 0 0 0
SMALL
GASTEIGER

@<TRIPOS>ATOM
      1 C          63.5764   89.3920   15.2796 C.3     1  UNL1        0.1525
      2 C          62.5059   88.8269   16.1654 C.3     1  UNL1        0.0452
      3 C          62.7246   90.3097   16.1056 C.3     1  UNL1        0.0452
      4 C          64.9654   91.9901   10.9993 C.3     1  UNL1        0.0192
      5 C          65.1519   91.6961   12.4584 C.3     1  UNL1        0.0797
      6 C          66.2193   92.4069   13.2363 C.3     1  UNL1        0.0178
      7 C          66.4058   92.1128   14.6953 C.3     1  UNL1        0.0030
      8 C          65.5249   91.1079   15.3764 C.3     1  UNL1        0.0213
      9 C          64.4574   90.3970   14.5985 C.3     1  UNL1        0.1160
     10 N          64.2709   90.6911   13.1395 N.3     1  UNL1       -0.1549
     11 S          63.2034   89.9802   12.3616 S.O2    1  UNL1        0.0633
     12 O          62.3218   91.1891   12.4667 O.2     1  UNL1       -0.1528
     13 O          63.7410   88.7697   12.1004 O.2     1  UNL1       -0.1528
     14 C          62.1360   89.2693   11.5837 C.ar    1  UNL1        0.1223
     15 C          60.6897   89.5198   11.8932 C.ar    1  UNL1        0.0208
     16 C          59.6222   88.8090   11.1153 C.ar    1  UNL1        0.0128
     17 C          60.0009   87.8476   10.0279 C.ar    1  UNL1        0.0578
     18 CL         58.9334   87.1367    9.2501 Cl      1  UNL1       -0.0822
     19 C          61.4471   87.5971    9.7184 C.ar    1  UNL1        0.0128
     20 C          62.5146   88.3079   10.4963 C.ar    1  UNL1        0.0208
     21 O          64.1223   88.1254   14.6901 O.3     1  UNL1       -0.4404
     22 C          63.9197   86.8196   15.4000 C.2     1  UNL1        0.4048
     23 O          63.9522   86.7678   16.8987 O.2     1  UNL1       -0.2262
     24 N          63.6846   85.5656   14.6111 N.am    1  UNL1       -0.2432
     25 C          63.6522   85.6174   13.1124 C.3     1  UNL1        0.1141
     26 C          63.4171   84.3633   12.3235 C.3     1  UNL1        0.0940
     27 N          63.2145   83.0577   13.0334 N.3     1  UNL1       -0.2699
     28 C          63.2470   83.0058   14.5321 C.3     1  UNL1        0.0940
     29 C          63.4821   84.2598   15.3210 C.3     1  UNL1        0.1141
     30 C          62.9795   81.8036   12.2445 C.3     1  UNL1        0.0726
     31 C          62.3297   81.1731   13.4404 C.3     1  UNL1        0.0186
     32 C          63.6293   82.4342   11.0487 C.3     1  UNL1        0.0186
     33 C          62.7444   80.5497   11.4557 C.3     1  UNL1        0.1516
     34 O          63.1147   80.4969   10.0031 O.3     1  UNL1       -0.3806
     35 H          62.5533   81.1104    9.5038 H       1  UNL1        0.2105
@<TRIPOS>BOND
     1     5     4    1
     2     5     6    1
     3     6     7    1
     4     7     8    1
     5     8     9    1
     6     9     1    1
     7     1    21    1
     8    21    22    1
     9    22    23    2
    10    22    24   am
    11    24    25    1
    12    25    26    1
    13    26    27    1
    14    27    30    1
    15    30    31    1
    16    30    32    1
    17    30    33    1
    18    33    34    1
    19    27    28    1
    20    28    29    1
    21     1     2    1
    22     2     3    1
    23     9    10    1
    24    10    11    1
    25    11    12    2
    26    11    13    2
    27    11    14    1
    28    14    15   ar
    29    15    16   ar
    30    16    17   ar
    31    17    18    1
    32    17    19   ar
    33    19    20   ar
    34    10     5    1
    35    20    14   ar
    36     3     1    1
    37    29    24    1
    38    34    35    1
@<TRIPOS>MOLECULE
*****
 35 38 0 0 0
SMALL
GASTEIGER

@<TRIPOS>ATOM
      1 C          63.4866   89.5533   15.0754 C.3     1  UNL1        0.1525
      2 C          63.5546   89.6894   16.5677 C.3     1  UNL1        0.0452
      3 C          63.0008   90.8089   15.7369 C.3     1  UNL1        0.0452
      4 C          64.7898   92.0912   10.7325 C.3     1  UNL1        0.0192
      5 C          63.8691   91.1633   11.4683 C.3     1  UNL1        0.0797
      6 C          62.6794   90.5764   10.7683 C.3     1  UNL1        0.0178
      7 C          61.7587   89.6485   11.5040 C.3     1  UNL1        0.0030
      8 C          62.0278   89.3074   12.9397 C.3     1  UNL1        0.0213
      9 C          63.2175   89.8943   13.6397 C.3     1  UNL1        0.1160
     10 N          64.1382   90.8222   12.9039 N.3     1  UNL1       -0.1549
     11 S          65.3280   91.4091   13.6040 S.O2    1  UNL1        0.0633
     12 O          64.8857   92.7849   13.2023 O.2     1  UNL1       -0.1528
     13 O          65.9734   90.3354   14.1072 O.2     1  UNL1       -0.1528
     14 C          66.5177   91.9960   14.3040 C.ar    1  UNL1        0.1223
     15 C          66.3620   92.6034   15.6667 C.ar    1  UNL1        0.0208
     16 C          67.5517   93.1903   16.3667 C.ar    1  UNL1        0.0128
     17 C          68.8972   93.1699   15.7040 C.ar    1  UNL1        0.0578
     18 CL         70.0870   93.7568   16.4040 Cl      1  UNL1       -0.0822
     19 C          69.0531   92.5626   14.3414 C.ar    1  UNL1        0.0128
     20 C          67.8633   91.9756   13.6413 C.ar    1  UNL1        0.0208
     21 O          64.0659   88.1793   14.9125 O.3     1  UNL1       -0.4404
     22 C          63.4586   87.0180   15.6425 C.2     1  UNL1        0.4048
     23 O          62.9970   87.1819   17.0603 O.2     1  UNL1       -0.2262
     24 N          63.3130   85.6930   14.9547 N.am    1  UNL1       -0.2432
     25 C          63.7746   85.5292   13.5370 C.3     1  UNL1        0.1141
     26 C          63.6290   84.2041   12.8492 C.3     1  UNL1        0.0940
     27 N          63.0218   83.0430   13.5790 N.3     1  UNL1       -0.2699
     28 C          62.5602   83.2067   14.9968 C.3     1  UNL1        0.0940
     29 C          62.7058   84.5318   15.6847 C.3     1  UNL1        0.1141
     30 C          62.8762   81.7179   12.8912 C.3     1  UNL1        0.0726
     31 C          61.8949   81.2820   13.9386 C.3     1  UNL1        0.0186
     32 C          63.8575   82.1538   11.8439 C.3     1  UNL1        0.0186
     33 C          62.7306   80.3929   12.2035 C.3     1  UNL1        0.1516
     34 O          62.8802   80.3006   10.7138 O.3     1  UNL1       -0.3806
     35 H          62.1578   80.7860   10.2856 H       1  UNL1        0.2105
@<TRIPOS>BOND
     1     5     4    1
     2     5     6    1
     3     6     7    1
     4     7     8    1
     5     8     9    1
     6     9     1    1
     7     1    21    1
     8    21    22    1
     9    22    23    2
    10    22    24   am
    11    24    25    1
    12    25    26    1
    13    26    27    1
    14    27    30    1
    15    30    31    1
    16    30    32    1
    17    30    33    1
    18    33    34    1
    19    27    28    1
    20    28    29    1
    21     1     2    1
    22     2     3    1
    23     9    10    1
    24    10    11    1
    25    11    12    2
    26    11    13    2
    27    11    14    1
    28    14    15   ar
    29    15    16   ar
    30    16    17   ar
    31    17    18    1
    32    17    19   ar
    33    19    20   ar
    34    10     5    1
    35    20    14   ar
    36     3     1    1
    37    29    24    1
    38    34    35    1
@<TRIPOS>MOLECULE
*****
 35 38 0 0 0
SMALL
GASTEIGER

@<TRIPOS>ATOM
      1 C          61.5430   94.3489   -1.5244 C.3     1  UNL1        0.1525
      2 C          60.6002   93.2813   -1.9950 C.3     1  UNL1        0.0452
      3 C          62.0620   92.9790   -1.8469 C.3     1  UNL1        0.0452
      4 C          65.1164   95.4035    2.0976 C.3     1  UNL1        0.0192
      5 C          64.6067   95.5493    0.6944 C.3     1  UNL1        0.0797
      6 C          65.3739   96.3681   -0.3010 C.3     1  UNL1        0.0178
      7 C          64.8642   96.5139   -1.7042 C.3     1  UNL1        0.0030
      8 C          63.5872   95.8409   -2.1120 C.3     1  UNL1        0.0213
      9 C          62.8200   95.0220   -1.1166 C.3     1  UNL1        0.1160
     10 N          63.3297   94.8762    0.2866 N.3     1  UNL1       -0.1549
     11 S          62.5624   94.0574    1.2820 S.O2    1  UNL1        0.0633
     12 O          61.7206   95.2529    1.6165 O.2     1  UNL1       -0.1528
     13 O          63.1305   92.8350    1.2066 O.2     1  UNL1       -0.1528
     14 C          61.7951   93.2386    2.2774 C.ar    1  UNL1        0.1223
     15 C          60.3447   93.5279    2.5275 C.ar    1  UNL1        0.0208
     16 C          59.5774   92.7091    3.5228 C.ar    1  UNL1        0.0128
     17 C          60.2605   91.6010    4.2681 C.ar    1  UNL1        0.0578
     18 CL         59.4932   90.7822    5.2635 Cl      1  UNL1       -0.0822
     19 C          61.7109   91.3116    4.0180 C.ar    1  UNL1        0.0128
     20 C          62.4783   92.1305    3.0226 C.ar    1  UNL1        0.0208
     21 O          60.5805   95.4851   -1.3434 O.3     1  UNL1       -0.4404
     22 C          59.8403   96.0365   -2.5259 C.2     1  UNL1        0.4048
     23 O          60.5994   96.5394   -3.7179 O.2     1  UNL1       -0.2262
     24 N          58.3412   96.0850   -2.5163 N.am    1  UNL1       -0.2432
     25 C          57.5821   95.5822   -1.3242 C.3     1  UNL1        0.1141
     26 C          56.0829   95.6307   -1.3147 C.3     1  UNL1        0.0940
     27 N          55.3428   96.1821   -2.4970 N.3     1  UNL1       -0.2699
     28 C          56.1018   96.6850   -3.6891 C.3     1  UNL1        0.0940
     29 C          57.6010   96.6365   -3.6987 C.3     1  UNL1        0.1141
     30 C          53.8436   96.2307   -2.4874 C.3     1  UNL1        0.0726
     31 C          53.8569   96.3472   -0.9921 C.3     1  UNL1        0.0186
     32 C          53.8304   96.1141   -3.9828 C.3     1  UNL1        0.0186
     33 C          52.3444   96.2792   -2.4779 C.3     1  UNL1        0.1516
     34 O          51.5550   95.0261   -2.2402 O.3     1  UNL1       -0.3806
     35 H          51.6928   94.4122   -2.9785 H       1  UNL1        0.2105
@<TRIPOS>BOND
     1     5     4    1
     2     5     6    1
     3     6     7    1
     4     7     8    1
     5     8     9    1
     6     9     1    1
     7     1    21    1
     8    21    22    1
     9    22    23    2
    10    22    24   am
    11    24    25    1
    12    25    26    1
    13    26    27    1
    14    27    30    1
    15    30    31    1
    16    30    32    1
    17    30    33    1
    18    33    34    1
    19    27    28    1
    20    28    29    1
    21     1     2    1
    22     2     3    1
    23     9    10    1
    24    10    11    1
    25    11    12    2
    26    11    13    2
    27    11    14    1
    28    14    15   ar
    29    15    16   ar
    30    16    17   ar
    31    17    18    1
    32    17    19   ar
    33    19    20   ar
    34    10     5    1
    35    20    14   ar
    36     3     1    1
    37    29    24    1
    38    34    35    1
@<TRIPOS>MOLECULE
*****
 35 38 0 0 0
SMALL
GASTEIGER

@<TRIPOS>ATOM
      1 C          63.5734   90.4589   12.7075 C.3     1  UNL1        0.1525
      2 C          63.0004   90.4425   11.3213 C.3     1  UNL1        0.0452
      3 C          63.1789   91.7449   12.0437 C.3     1  UNL1        0.0452
      4 C          66.8817   93.4162   15.4110 C.3     1  UNL1        0.0192
      5 C          65.7233   92.4640   15.3734 C.3     1  UNL1        0.0797
      6 C          65.0606   92.0383   16.6500 C.3     1  UNL1        0.0178
      7 C          63.9022   91.0861   16.6124 C.3     1  UNL1        0.0030
      8 C          63.4065   90.5596   15.2983 C.3     1  UNL1        0.0213
      9 C          64.0691   90.9853   14.0217 C.3     1  UNL1        0.1160
     10 N          65.2275   91.9375   14.0593 N.3     1  UNL1       -0.1549
     11 S          65.8902   92.3632   12.7827 S.O2    1  UNL1        0.0633
     12 O          66.8563   91.2222   12.9037 O.2     1  UNL1       -0.1528
     13 O          65.1908   93.4524   12.3990 O.2     1  UNL1       -0.1528
     14 C          66.5528   92.7889   11.5061 C.ar    1  UNL1        0.1223
     15 C          67.6682   91.9678   10.9300 C.ar    1  UNL1        0.0208
     16 C          68.3308   92.3934    9.6534 C.ar    1  UNL1        0.0128
     17 C          67.8782   93.6402    8.9529 C.ar    1  UNL1        0.0578
     18 CL         68.5409   94.0658    7.6764 Cl      1  UNL1       -0.0822
     19 C          66.7630   94.4613    9.5290 C.ar    1  UNL1        0.0128
     20 C          66.1002   94.0357   10.8056 C.ar    1  UNL1        0.0208
     21 O          63.7957   88.9900   12.9149 O.3     1  UNL1       -0.4404
     22 C          63.0782   87.9939   12.0529 C.2     1  UNL1        0.4048
     23 O          62.3128   88.4575   10.8491 O.2     1  UNL1       -0.2262
     24 N          63.1261   86.5342   12.3947 N.am    1  UNL1       -0.2432
     25 C          63.8916   86.0705   13.5985 C.3     1  UNL1        0.1141
     26 C          63.9395   84.6107   13.9403 C.3     1  UNL1        0.0940
     27 N          63.2221   83.6147   13.0785 N.3     1  UNL1       -0.2699
     28 C          62.4566   84.0782   11.8746 C.3     1  UNL1        0.0940
     29 C          62.4086   85.5380   11.5327 C.3     1  UNL1        0.1141
     30 C          63.2700   82.1549   13.4203 C.3     1  UNL1        0.0726
     31 C          62.1456   82.3460   14.3944 C.3     1  UNL1        0.0186
     32 C          64.3944   81.9638   12.4461 C.3     1  UNL1        0.0186
     33 C          63.3179   80.6952   13.7621 C.3     1  UNL1        0.1516
     34 O          62.1746   79.7992   13.3877 O.3     1  UNL1       -0.3806
     35 H          61.3845   80.0572   13.8878 H       1  UNL1        0.2105
@<TRIPOS>BOND
     1     5     4    1
     2     5     6    1
     3     6     7    1
     4     7     8    1
     5     8     9    1
     6     9     1    1
     7     1    21    1
     8    21    22    1
     9    22    23    2
    10    22    24   am
    11    24    25    1
    12    25    26    1
    13    26    27    1
    14    27    30    1
    15    30    31    1
    16    30    32    1
    17    30    33    1
    18    33    34    1
    19    27    28    1
    20    28    29    1
    21     1     2    1
    22     2     3    1
    23     9    10    1
    24    10    11    1
    25    11    12    2
    26    11    13    2
    27    11    14    1
    28    14    15   ar
    29    15    16   ar
    30    16    17   ar
    31    17    18    1
    32    17    19   ar
    33    19    20   ar
    34    10     5    1
    35    20    14   ar
    36     3     1    1
    37    29    24    1
    38    34    35    1
