@<TRIPOS>MOLECULE
*****
 30 32 0 0 0
SMALL
GASTEIGER

@<TRIPOS>ATOM
      1 C          63.8170   90.1255   13.3733 C.ar    1  UNL1        0.1773
      2 C          64.3519   89.3578   14.5457 C.ar    1  UNL1        0.1402
      3 N          64.2481   87.8617   14.5730 N.ar    1  UNL1       -0.2089
      4 C          63.6095   87.1332   13.4278 C.ar    1  UNL1        0.2205
      5 N          63.0747   87.9009   12.2554 N.ar    1  UNL1       -0.2089
      6 C          63.1784   89.3970   12.2281 C.ar    1  UNL1        0.1402
      7 N          63.5057   85.6370   13.4550 N.pl3   1  UNL1       -0.2747
      8 C          62.6096   84.9296   12.4821 C.3     1  UNL1        0.1152
      9 C          62.5058   83.4335   12.5093 C.3     1  UNL1        0.1182
     10 N          63.2981   82.6448   13.5094 N.am    1  UNL1       -0.2425
     11 C          63.1943   81.1486   13.5366 C.2     1  UNL1        0.4052
     12 O          63.9866   80.3599   14.5366 O.2     1  UNL1       -0.2262
     13 C          64.1942   83.3522   14.4822 C.3     1  UNL1        0.1182
     14 C          64.2980   84.8483   14.4550 C.3     1  UNL1        0.1152
     15 O          62.2981   80.4411   12.5637 O.3     1  UNL1       -0.4252
     16 C          62.7719   79.1942   11.8777 C.3     1  UNL1        0.3125
     17 C          62.8743   79.1539   10.3818 C.3     1  UNL1        0.4382
     18 F          62.9768   79.1136    8.8858 F       1  UNL1       -0.1663
     19 F          62.9569   80.6512   10.3471 F       1  UNL1       -0.1663
     20 F          62.7918   77.6566   10.4164 F       1  UNL1       -0.1663
     21 O          63.9208   91.6217   13.3461 O.3     1  UNL1       -0.4675
     22 C          65.2158   92.2769   12.9671 C.3     1  UNL1        0.2329
     23 C          67.7610   92.2628   13.4889 C.ar    1  UNL1        0.0871
     24 C          68.8841   92.3335   14.4806 C.ar    1  UNL1        0.1089
     25 N          68.5853   92.4890   15.9423 N.ar    1  UNL1       -0.2416
     26 C          67.1634   92.5737   16.4122 C.ar    1  UNL1        0.0987
     27 C          66.0402   92.5030   15.4205 C.ar    1  UNL1        0.0207
     28 C          66.3390   92.3476   13.9588 C.ar    1  UNL1        0.0339
     29 N          68.3586   91.9518   10.5655 N.1     1  UNL1       -0.1908
     30 C          68.0598   92.1073   12.0272 C.1     1  UNL1        0.1018
@<TRIPOS>BOND
     1    29    30    3
     2    30    23    1
     3    23    24   ar
     4    24    25   ar
     5    25    26   ar
     6    26    27   ar
     7    27    28   ar
     8    28    22    1
     9    22    21    1
    10    21     1    1
    11     1     2   ar
    12     2     3   ar
    13     3     4   ar
    14     4     7    1
    15     7     8    1
    16     8     9    1
    17     9    10    1
    18    10    11   am
    19    11    12    2
    20    11    15    1
    21    15    16    1
    22    16    17    1
    23    17    18    1
    24    17    19    1
    25    17    20    1
    26    10    13    1
    27    13    14    1
    28     4     5   ar
    29     5     6   ar
    30    28    23   ar
    31     6     1   ar
    32    14     7    1
@<TRIPOS>MOLECULE
*****
 30 32 0 0 0
SMALL
GASTEIGER

@<TRIPOS>ATOM
      1 C          63.7729   90.1670   13.4220 C.ar    1  UNL1        0.1773
      2 C          63.1224   89.4442   12.2799 C.ar    1  UNL1        0.1402
      3 N          63.0399   87.9466   12.2896 N.ar    1  UNL1       -0.2089
      4 C          63.6080   87.1717   13.4415 C.ar    1  UNL1        0.2205
      5 N          64.2585   87.8945   14.5836 N.ar    1  UNL1       -0.2089
      6 C          64.3409   89.3921   14.5739 C.ar    1  UNL1        0.1402
      7 N          63.5255   85.6739   13.4513 N.pl3   1  UNL1       -0.2747
      8 C          62.5934   84.9680   12.5118 C.3     1  UNL1        0.1152
      9 C          62.5109   83.4703   12.5215 C.3     1  UNL1        0.1182
     10 N          63.3606   82.6786   13.4708 N.am    1  UNL1       -0.2425
     11 C          63.2781   81.1808   13.4806 C.2     1  UNL1        0.4052
     12 O          64.1278   80.3891   14.4299 O.2     1  UNL1       -0.2262
     13 C          64.2927   83.3846   14.4104 C.3     1  UNL1        0.1182
     14 C          64.3752   84.8822   14.4006 C.3     1  UNL1        0.1152
     15 O          62.3460   80.4749   12.5411 O.3     1  UNL1       -0.4252
     16 C          62.8005   79.2404   11.8203 C.3     1  UNL1        0.3125
     17 C          62.8049   79.2063   10.3207 C.3     1  UNL1        0.4382
     18 F          62.8092   79.1722    8.8211 F       1  UNL1       -0.1663
     19 F          62.9435   80.6995   10.2871 F       1  UNL1       -0.1663
     20 F          62.6662   77.7131   10.3543 F       1  UNL1       -0.1663
     21 O          63.8553   91.6648   13.4122 O.3     1  UNL1       -0.4675
     22 C          65.1564   92.3463   13.7167 C.3     1  UNL1        0.2329
     23 C          67.6962   92.0847   13.2361 C.ar    1  UNL1        0.0871
     24 C          68.8319   92.0035   12.2596 C.ar    1  UNL1        0.1089
     25 N          68.5635   92.1027   10.7871 N.ar    1  UNL1       -0.2416
     26 C          67.1594   92.2831   10.2912 C.ar    1  UNL1        0.0987
     27 C          66.0238   92.3643   11.2677 C.ar    1  UNL1        0.0207
     28 C          66.2921   92.2651   12.7401 C.ar    1  UNL1        0.0339
     29 N          68.2330   91.8863   16.1810 N.1     1  UNL1       -0.1908
     30 C          67.9646   91.9855   14.7086 C.1     1  UNL1        0.1018
@<TRIPOS>BOND
     1    29    30    3
     2    30    23    1
     3    23    24   ar
     4    24    25   ar
     5    25    26   ar
     6    26    27   ar
     7    27    28   ar
     8    28    22    1
     9    22    21    1
    10    21     1    1
    11     1     2   ar
    12     2     3   ar
    13     3     4   ar
    14     4     7    1
    15     7     8    1
    16     8     9    1
    17     9    10    1
    18    10    11   am
    19    11    12    2
    20    11    15    1
    21    15    16    1
    22    16    17    1
    23    17    18    1
    24    17    19    1
    25    17    20    1
    26    10    13    1
    27    13    14    1
    28     4     5   ar
    29     5     6   ar
    30    28    23   ar
    31     6     1   ar
    32    14     7    1
@<TRIPOS>MOLECULE
*****
 30 32 0 0 0
SMALL
GASTEIGER

@<TRIPOS>ATOM
      1 C          64.3854   91.5223   12.7289 C.ar    1  UNL1        0.1773
      2 C          64.9194   90.8317   13.9487 C.ar    1  UNL1        0.1402
      3 N          64.6601   89.3690   14.1564 N.ar    1  UNL1       -0.2089
      4 C          63.8668   88.5968   13.1443 C.ar    1  UNL1        0.2205
      5 N          63.3327   89.2875   11.9245 N.ar    1  UNL1       -0.2089
      6 C          63.5921   90.7502   11.7168 C.ar    1  UNL1        0.1402
      7 N          63.6074   87.1340   13.3519 N.pl3   1  UNL1       -0.2747
      8 C          62.9140   86.3368   12.2873 C.3     1  UNL1        0.1152
      9 C          62.6546   84.8741   12.4948 C.3     1  UNL1        0.1182
     10 N          63.0887   84.2086   13.7671 N.am    1  UNL1       -0.2425
     11 C          62.8294   82.7458   13.9747 C.2     1  UNL1        0.4052
     12 O          63.2634   82.0804   15.2470 O.2     1  UNL1       -0.2262
     13 C          63.7822   85.0059   14.8318 C.3     1  UNL1        0.1182
     14 C          64.0415   86.4686   14.6242 C.3     1  UNL1        0.1152
     15 O          62.1359   81.9486   12.9101 O.3     1  UNL1       -0.4252
     16 C          62.9361   81.0954   11.9711 C.3     1  UNL1        0.3125
     17 C          63.7475   81.7348   10.8835 C.3     1  UNL1        0.4382
     18 F          64.5590   82.3742    9.7960 F       1  UNL1       -0.1663
     19 F          62.7729   81.2315    9.8604 F       1  UNL1       -0.1663
     20 F          64.7222   82.2381   11.9066 F       1  UNL1       -0.1663
     21 O          64.6447   92.9851   12.5213 O.3     1  UNL1       -0.4675
     22 C          66.0526   93.4863   12.3924 C.3     1  UNL1        0.2329
     23 C          66.6646   94.4320   10.0512 C.ar    1  UNL1        0.0871
     24 C          67.3915   94.2989    8.7459 C.ar    1  UNL1        0.1089
     25 N          68.2334   93.0871    8.4764 N.ar    1  UNL1       -0.2416
     26 C          68.3484   92.0083    9.5123 C.ar    1  UNL1        0.0987
     27 C          67.6215   92.1414   10.8175 C.ar    1  UNL1        0.0207
     28 C          66.7796   93.3532   11.0870 C.ar    1  UNL1        0.0339
     29 N          64.9808   96.8557   10.5902 N.1     1  UNL1       -0.1908
     30 C          65.8227   95.6439   10.3207 C.1     1  UNL1        0.1018
@<TRIPOS>BOND
     1    29    30    3
     2    30    23    1
     3    23    24   ar
     4    24    25   ar
     5    25    26   ar
     6    26    27   ar
     7    27    28   ar
     8    28    22    1
     9    22    21    1
    10    21     1    1
    11     1     2   ar
    12     2     3   ar
    13     3     4   ar
    14     4     7    1
    15     7     8    1
    16     8     9    1
    17     9    10    1
    18    10    11   am
    19    11    12    2
    20    11    15    1
    21    15    16    1
    22    16    17    1
    23    17    18    1
    24    17    19    1
    25    17    20    1
    26    10    13    1
    27    13    14    1
    28     4     5   ar
    29     5     6   ar
    30    28    23   ar
    31     6     1   ar
    32    14     7    1
@<TRIPOS>MOLECULE
*****
 30 32 0 0 0
SMALL
GASTEIGER

@<TRIPOS>ATOM
      1 C          65.0119   92.0299   13.0478 C.ar    1  UNL1        0.1773
      2 C          65.5668   91.3061   14.2387 C.ar    1  UNL1        0.1402
      3 N          65.2153   89.8668   14.4724 N.ar    1  UNL1       -0.2089
      4 C          64.3088   89.1512   13.5152 C.ar    1  UNL1        0.2205
      5 N          63.7539   89.8750   12.3243 N.ar    1  UNL1       -0.2089
      6 C          64.1055   91.3144   12.0906 C.ar    1  UNL1        0.1402
      7 N          63.9572   87.7118   13.7488 N.pl3   1  UNL1       -0.2747
      8 C          63.5168   86.8516   12.6016 C.3     1  UNL1        0.1152
      9 C          63.1652   85.4123   12.8352 C.3     1  UNL1        0.1182
     10 N          63.2540   84.8331   14.2160 N.am    1  UNL1       -0.2425
     11 C          62.9024   83.3937   14.4497 C.2     1  UNL1        0.4052
     12 O          62.9912   82.8145   15.8304 O.2     1  UNL1       -0.2262
     13 C          63.6945   85.6933   15.3632 C.3     1  UNL1        0.1182
     14 C          64.0461   87.1327   15.1296 C.3     1  UNL1        0.1152
     15 O          62.4620   82.5335   13.3025 O.3     1  UNL1       -0.4252
     16 C          63.4432   81.6195   12.6304 C.3     1  UNL1        0.3125
     17 C          63.0933   80.9752   11.3218 C.3     1  UNL1        0.4382
     18 F          62.7435   80.3310   10.0131 F       1  UNL1       -0.1663
     19 F          62.4934   79.8121   12.0548 F       1  UNL1       -0.1663
     20 F          63.6932   82.1383   10.5888 F       1  UNL1       -0.1663
     21 O          65.3636   93.4693   12.8141 O.3     1  UNL1       -0.4675
     22 C          66.5042   93.8251   11.9073 C.3     1  UNL1        0.2329
     23 C          67.0644   94.6188    9.4977 C.ar    1  UNL1        0.0871
     24 C          66.8496   95.5749    8.3621 C.ar    1  UNL1        0.1089
     25 N          65.8596   96.6933    8.5003 N.ar    1  UNL1       -0.2416
     26 C          65.0845   96.8557    9.7742 C.ar    1  UNL1        0.0987
     27 C          65.2993   95.8996   10.9098 C.ar    1  UNL1        0.0207
     28 C          66.2893   94.7812   10.7716 C.ar    1  UNL1        0.0339
     29 N          69.0444   92.3820    9.2212 N.1     1  UNL1       -0.1908
     30 C          68.0544   93.5004    9.3595 C.1     1  UNL1        0.1018
@<TRIPOS>BOND
     1    29    30    3
     2    30    23    1
     3    23    24   ar
     4    24    25   ar
     5    25    26   ar
     6    26    27   ar
     7    27    28   ar
     8    28    22    1
     9    22    21    1
    10    21     1    1
    11     1     2   ar
    12     2     3   ar
    13     3     4   ar
    14     4     7    1
    15     7     8    1
    16     8     9    1
    17     9    10    1
    18    10    11   am
    19    11    12    2
    20    11    15    1
    21    15    16    1
    22    16    17    1
    23    17    18    1
    24    17    19    1
    25    17    20    1
    26    10    13    1
    27    13    14    1
    28     4     5   ar
    29     5     6   ar
    30    28    23   ar
    31     6     1   ar
    32    14     7    1
@<TRIPOS>MOLECULE
*****
 30 32 0 0 0
SMALL
GASTEIGER

@<TRIPOS>ATOM
      1 C          63.7658   90.1643   13.3712 C.ar    1  UNL1        0.1773
      2 C          63.1483   89.3932   12.2424 C.ar    1  UNL1        0.1402
      3 N          63.0920   87.8954   12.2997 N.ar    1  UNL1       -0.2089
      4 C          63.6532   87.1686   13.4857 C.ar    1  UNL1        0.2205
      5 N          64.2707   87.9397   14.6145 N.ar    1  UNL1       -0.2089
      6 C          64.3270   89.4375   14.5572 C.ar    1  UNL1        0.1402
      7 N          63.5970   85.6707   13.5431 N.pl3   1  UNL1       -0.2747
      8 C          62.5193   84.9319   12.8063 C.3     1  UNL1        0.1152
      9 C          62.4630   83.4341   12.8636 C.3     1  UNL1        0.1182
     10 N          63.4844   82.6751   13.6576 N.am    1  UNL1       -0.2425
     11 C          63.4281   81.1772   13.7150 C.2     1  UNL1        0.4052
     12 O          64.4495   80.4182   14.5090 O.2     1  UNL1       -0.2262
     13 C          64.5621   83.4139   14.3944 C.3     1  UNL1        0.1182
     14 C          64.6184   84.9117   14.3371 C.3     1  UNL1        0.1152
     15 O          62.3505   80.4384   12.9782 O.3     1  UNL1       -0.4252
     16 C          61.4060   79.5461   13.7276 C.3     1  UNL1        0.3125
     17 C          60.0505   80.0522   14.1230 C.3     1  UNL1        0.4382
     18 F          58.6949   80.5583   14.5185 F       1  UNL1       -0.1663
     19 F          59.5243   78.6475   14.1173 F       1  UNL1       -0.1663
     20 F          60.5766   81.4569   14.1288 F       1  UNL1       -0.1663
     21 O          63.8220   91.6622   13.3138 O.3     1  UNL1       -0.4675
     22 C          65.1066   92.3764   13.6132 C.3     1  UNL1        0.2329
     23 C          67.6501   92.1035   13.1594 C.ar    1  UNL1        0.0871
     24 C          68.7962   92.0217   12.1951 C.ar    1  UNL1        0.1089
     25 N          68.5447   92.1309   10.7204 N.ar    1  UNL1       -0.2416
     26 C          67.1473   92.3220   10.2099 C.ar    1  UNL1        0.0987
     27 C          66.0013   92.4038   11.1742 C.ar    1  UNL1        0.0207
     28 C          66.2527   92.2946   12.6489 C.ar    1  UNL1        0.0339
     29 N          68.1530   91.8851   16.1089 N.1     1  UNL1       -0.1908
     30 C          67.9016   91.9943   14.6341 C.1     1  UNL1        0.1018
@<TRIPOS>BOND
     1    29    30    3
     2    30    23    1
     3    23    24   ar
     4    24    25   ar
     5    25    26   ar
     6    26    27   ar
     7    27    28   ar
     8    28    22    1
     9    22    21    1
    10    21     1    1
    11     1     2   ar
    12     2     3   ar
    13     3     4   ar
    14     4     7    1
    15     7     8    1
    16     8     9    1
    17     9    10    1
    18    10    11   am
    19    11    12    2
    20    11    15    1
    21    15    16    1
    22    16    17    1
    23    17    18    1
    24    17    19    1
    25    17    20    1
    26    10    13    1
    27    13    14    1
    28     4     5   ar
    29     5     6   ar
    30    28    23   ar
    31     6     1   ar
    32    14     7    1
@<TRIPOS>MOLECULE
*****
 30 32 0 0 0
SMALL
GASTEIGER

@<TRIPOS>ATOM
      1 C          63.0417   85.5408   14.9020 C.ar    1  UNL1        0.1773
      2 C          63.5005   86.5051   15.9554 C.ar    1  UNL1        0.1402
      3 N          63.9782   87.8720   15.5640 N.ar    1  UNL1       -0.2089
      4 C          63.9972   88.2746   14.1192 C.ar    1  UNL1        0.2205
      5 N          63.5384   87.3103   13.0658 N.ar    1  UNL1       -0.2089
      6 C          63.0606   85.9434   13.4572 C.ar    1  UNL1        0.1402
      7 N          64.4749   89.6416   13.7277 N.pl3   1  UNL1       -0.2747
      8 C          64.0271   90.2500   12.4318 C.3     1  UNL1        0.1152
      9 C          64.5048   91.6169   12.0403 C.3     1  UNL1        0.1182
     10 N          65.4304   92.3754   12.9446 N.am    1  UNL1       -0.2425
     11 C          65.9081   93.7424   12.5531 C.2     1  UNL1        0.4052
     12 O          66.8337   94.5009   13.4575 O.2     1  UNL1       -0.2262
     13 C          65.8782   91.7670   14.2405 C.3     1  UNL1        0.1182
     14 C          65.4005   90.4001   14.6320 C.3     1  UNL1        0.1152
     15 O          65.4603   94.3507   11.2572 O.3     1  UNL1       -0.4252
     16 C          66.4576   95.0200   10.3587 C.3     1  UNL1        0.3125
     17 C          67.2477   94.2060    9.3773 C.3     1  UNL1        0.4382
     18 F          68.0379   93.3920    8.3960 F       1  UNL1       -0.1663
     19 F          66.4353   92.9948    9.7279 F       1  UNL1       -0.1663
     20 F          68.0601   95.4173    9.0268 F       1  UNL1       -0.1663
     21 O          62.5639   84.1738   15.2935 O.3     1  UNL1       -0.4675
     22 C          63.3469   82.9607   14.8870 C.3     1  UNL1        0.2329
     23 C          62.5026   81.6608   12.8019 C.ar    1  UNL1        0.0871
     24 C          62.6358   81.3058   11.3506 C.ar    1  UNL1        0.1089
     25 N          63.7465   81.8957   10.5331 N.ar    1  UNL1       -0.2416
     26 C          64.7239   82.8406   11.1668 C.ar    1  UNL1        0.0987
     27 C          64.5907   83.1956   12.6181 C.ar    1  UNL1        0.0207
     28 C          63.4800   82.6057   13.4356 C.ar    1  UNL1        0.0339
     29 N          60.2812   80.4810   14.4370 N.1     1  UNL1       -0.1908
     30 C          61.3919   81.0709   13.6194 C.1     1  UNL1        0.1018
@<TRIPOS>BOND
     1    29    30    3
     2    30    23    1
     3    23    24   ar
     4    24    25   ar
     5    25    26   ar
     6    26    27   ar
     7    27    28   ar
     8    28    22    1
     9    22    21    1
    10    21     1    1
    11     1     2   ar
    12     2     3   ar
    13     3     4   ar
    14     4     7    1
    15     7     8    1
    16     8     9    1
    17     9    10    1
    18    10    11   am
    19    11    12    2
    20    11    15    1
    21    15    16    1
    22    16    17    1
    23    17    18    1
    24    17    19    1
    25    17    20    1
    26    10    13    1
    27    13    14    1
    28     4     5   ar
    29     5     6   ar
    30    28    23   ar
    31     6     1   ar
    32    14     7    1
@<TRIPOS>MOLECULE
*****
 30 32 0 0 0
SMALL
GASTEIGER

@<TRIPOS>ATOM
      1 C          60.1432   89.0205    8.4178 C.ar    1  UNL1        0.1773
      2 C          61.0856   89.5003    9.4816 C.ar    1  UNL1        0.1402
      3 N          61.7668   88.5121   10.3813 N.ar    1  UNL1       -0.2089
      4 C          61.5055   87.0442   10.2172 C.ar    1  UNL1        0.2205
      5 N          60.5631   86.5645    9.1534 N.ar    1  UNL1       -0.2089
      6 C          59.8819   87.5526    8.2537 C.ar    1  UNL1        0.1402
      7 N          62.1867   86.0560   11.1170 N.pl3   1  UNL1       -0.2747
      8 C          62.2300   84.6046   10.7405 C.3     1  UNL1        0.1152
      9 C          62.9111   83.6164   11.6402 C.3     1  UNL1        0.1182
     10 N          63.5489   84.0795   12.9163 N.am    1  UNL1       -0.2425
     11 C          64.2301   83.0913   13.8161 C.2     1  UNL1        0.4052
     12 O          64.8679   83.5544   15.0923 O.2     1  UNL1       -0.2262
     13 C          63.5056   85.5309   13.2928 C.3     1  UNL1        0.1182
     14 C          62.8245   86.5191   12.3932 C.3     1  UNL1        0.1152
     15 O          64.2734   81.6400   13.4396 O.3     1  UNL1       -0.4252
     16 C          63.3515   80.6638   14.1084 C.3     1  UNL1        0.3125
     17 C          61.8709   80.7586   13.8879 C.3     1  UNL1        0.4382
     18 F          60.3902   80.8534   13.6675 F       1  UNL1       -0.1663
     19 F          61.9490   79.6461   12.8848 F       1  UNL1       -0.1663
     20 F          61.7928   81.8711   14.8910 F       1  UNL1       -0.1663
     21 O          59.4621   90.0087    7.5180 O.3     1  UNL1       -0.4675
     22 C          59.3488   89.7310    6.0484 C.3     1  UNL1        0.2329
     23 C          58.7816   91.6741    4.4196 C.ar    1  UNL1        0.0871
     24 C          59.2235   92.7063    3.4250 C.ar    1  UNL1        0.1089
     25 N          60.6745   92.8276    3.0646 N.ar    1  UNL1       -0.2416
     26 C          61.6836   91.9168    3.6987 C.ar    1  UNL1        0.0987
     27 C          61.2416   90.8847    4.6933 C.ar    1  UNL1        0.0207
     28 C          59.7907   90.7633    5.0537 C.ar    1  UNL1        0.0339
     29 N          55.8796   91.4313    5.1405 N.1     1  UNL1       -0.1908
     30 C          57.3306   91.5527    4.7800 C.1     1  UNL1        0.1018
@<TRIPOS>BOND
     1    29    30    3
     2    30    23    1
     3    23    24   ar
     4    24    25   ar
     5    25    26   ar
     6    26    27   ar
     7    27    28   ar
     8    28    22    1
     9    22    21    1
    10    21     1    1
    11     1     2   ar
    12     2     3   ar
    13     3     4   ar
    14     4     7    1
    15     7     8    1
    16     8     9    1
    17     9    10    1
    18    10    11   am
    19    11    12    2
    20    11    15    1
    21    15    16    1
    22    16    17    1
    23    17    18    1
    24    17    19    1
    25    17    20    1
    26    10    13    1
    27    13    14    1
    28     4     5   ar
    29     5     6   ar
    30    28    23   ar
    31     6     1   ar
    32    14     7    1
@<TRIPOS>MOLECULE
*****
 30 32 0 0 0
SMALL
GASTEIGER

@<TRIPOS>ATOM
      1 C          59.3303   90.8293    5.6156 C.ar    1  UNL1        0.1773
      2 C          58.4141   91.7193    4.8292 C.ar    1  UNL1        0.1402
      3 N          58.9502   92.5188    3.6789 N.ar    1  UNL1       -0.2089
      4 C          60.4025   92.4282    3.3149 C.ar    1  UNL1        0.2205
      5 N          61.3187   91.5381    4.1013 N.ar    1  UNL1       -0.2089
      6 C          60.7826   90.7387    5.2517 C.ar    1  UNL1        0.1402
      7 N          60.9387   93.2276    2.1644 N.pl3   1  UNL1       -0.2747
      8 C          62.2219   92.8214    1.5023 C.3     1  UNL1        0.1152
      9 C          62.7581   93.6208    0.3519 C.3     1  UNL1        0.1182
     10 N          62.0111   94.8264   -0.1363 N.am    1  UNL1       -0.2425
     11 C          62.5473   95.6259   -1.2867 C.2     1  UNL1        0.4052
     12 O          61.8003   96.8315   -1.7750 O.2     1  UNL1       -0.2262
     13 C          60.7279   95.2327    0.5258 C.3     1  UNL1        0.1182
     14 C          60.1917   94.4333    1.6762 C.3     1  UNL1        0.1152
     15 O          63.8305   95.2197   -1.9489 O.3     1  UNL1       -0.4252
     16 C          63.8492   94.8968   -3.4136 C.3     1  UNL1        0.3125
     17 C          64.2138   93.5161   -3.8726 C.3     1  UNL1        0.4382
     18 F          64.5783   92.1354   -4.3317 F       1  UNL1       -0.1663
     19 F          65.1553   94.1008   -4.8834 F       1  UNL1       -0.1663
     20 F          63.2723   92.9314   -2.8618 F       1  UNL1       -0.1663
     21 O          58.7941   90.0298    6.7661 O.3     1  UNL1       -0.4675
     22 C          59.3975   88.6976    7.0994 C.3     1  UNL1        0.2329
     23 C          60.4656   87.0849    8.8340 C.ar    1  UNL1        0.0871
     24 C          61.0099   86.8310   10.2084 C.ar    1  UNL1        0.1089
     25 N          61.0306   87.9358   11.2228 N.ar    1  UNL1       -0.2416
     26 C          60.5069   89.2945   10.8628 C.ar    1  UNL1        0.0987
     27 C          59.9625   89.5484    9.4884 C.ar    1  UNL1        0.0207
     28 C          59.9419   88.4436    8.4740 C.ar    1  UNL1        0.0339
     29 N          60.4242   84.8754    6.8051 N.1     1  UNL1       -0.1908
     30 C          60.4449   85.9802    7.8195 C.1     1  UNL1        0.1018
@<TRIPOS>BOND
     1    29    30    3
     2    30    23    1
     3    23    24   ar
     4    24    25   ar
     5    25    26   ar
     6    26    27   ar
     7    27    28   ar
     8    28    22    1
     9    22    21    1
    10    21     1    1
    11     1     2   ar
    12     2     3   ar
    13     3     4   ar
    14     4     7    1
    15     7     8    1
    16     8     9    1
    17     9    10    1
    18    10    11   am
    19    11    12    2
    20    11    15    1
    21    15    16    1
    22    16    17    1
    23    17    18    1
    24    17    19    1
    25    17    20    1
    26    10    13    1
    27    13    14    1
    28     4     5   ar
    29     5     6   ar
    30    28    23   ar
    31     6     1   ar
    32    14     7    1
@<TRIPOS>MOLECULE
*****
 30 32 0 0 0
SMALL
GASTEIGER

@<TRIPOS>ATOM
      1 C          63.3974   86.1481   15.5967 C.ar    1  UNL1        0.1773
      2 C          63.0738   87.3820   16.3860 C.ar    1  UNL1        0.1402
      3 N          63.5219   88.7262   15.8937 N.ar    1  UNL1       -0.2089
      4 C          64.2936   88.8365   14.6122 C.ar    1  UNL1        0.2205
      5 N          64.6172   87.6026   13.8230 N.ar    1  UNL1       -0.2089
      6 C          64.1691   86.2584   14.3153 C.ar    1  UNL1        0.1402
      7 N          64.7418   90.1807   14.1199 N.pl3   1  UNL1       -0.2747
      8 C          64.4067   90.6184   12.7249 C.3     1  UNL1        0.1152
      9 C          64.8548   91.9625   12.2325 C.3     1  UNL1        0.1182
     10 N          65.6380   92.8689   13.1352 N.am    1  UNL1       -0.2425
     11 C          66.0862   94.2132   12.6429 C.2     1  UNL1        0.4052
     12 O          66.8694   95.1196   13.5455 O.2     1  UNL1       -0.2262
     13 C          65.9731   92.4312   14.5302 C.3     1  UNL1        0.1182
     14 C          65.5250   91.0871   15.0226 C.3     1  UNL1        0.1152
     15 O          65.7511   94.6509   11.2478 O.3     1  UNL1       -0.4252
     16 C          66.8164   95.2366   10.3692 C.3     1  UNL1        0.3125
     17 C          67.3881   94.4277    9.2428 C.3     1  UNL1        0.4382
     18 F          67.9598   93.6189    8.1163 F       1  UNL1       -0.1663
     19 F          67.9425   95.6778    8.6265 F       1  UNL1       -0.1663
     20 F          66.8338   93.1776    9.8591 F       1  UNL1       -0.1663
     21 O          62.9493   84.8039   16.0891 O.3     1  UNL1       -0.4675
     22 C          61.9678   84.0008   15.2880 C.3     1  UNL1        0.2329
     23 C          62.5444   83.4266   12.8206 C.ar    1  UNL1        0.0871
     24 C          63.0357   82.4482   11.7953 C.ar    1  UNL1        0.1089
     25 N          63.4416   81.0656   12.2119 N.ar    1  UNL1       -0.2416
     26 C          63.3563   80.6614   13.6539 C.ar    1  UNL1        0.0987
     27 C          62.8651   81.6398   14.6792 C.ar    1  UNL1        0.0207
     28 C          62.4591   83.0224   14.2626 C.ar    1  UNL1        0.0339
     29 N          61.7325   86.1919   11.9874 N.1     1  UNL1       -0.1908
     30 C          62.1384   84.8092   12.4040 C.1     1  UNL1        0.1018
@<TRIPOS>BOND
     1    29    30    3
     2    30    23    1
     3    23    24   ar
     4    24    25   ar
     5    25    26   ar
     6    26    27   ar
     7    27    28   ar
     8    28    22    1
     9    22    21    1
    10    21     1    1
    11     1     2   ar
    12     2     3   ar
    13     3     4   ar
    14     4     7    1
    15     7     8    1
    16     8     9    1
    17     9    10    1
    18    10    11   am
    19    11    12    2
    20    11    15    1
    21    15    16    1
    22    16    17    1
    23    17    18    1
    24    17    19    1
    25    17    20    1
    26    10    13    1
    27    13    14    1
    28     4     5   ar
    29     5     6   ar
    30    28    23   ar
    31     6     1   ar
    32    14     7    1
