@<TRIPOS>MOLECULE
*****
 41 45 0 0 0
SMALL
GASTEIGER

@<TRIPOS>ATOM
      1 C          64.4465   91.8022   13.0749 C.ar    1  UNL1        0.1512
      2 C          63.9951   90.9528   11.9239 C.ar    1  UNL1        0.0619
      3 C          63.4039   89.6922   12.4818 C.ar    1  UNL1        0.0987
      4 S          63.4899   89.7624   13.9777 S.2     1  UNL1       -0.0618
      5 C          64.1343   91.0664   14.3442 C.ar    1  UNL1        0.1178
      6 N          62.8278   88.5601   11.6840 N.ar    1  UNL1       -0.2823
      7 C          62.0533   88.6869   10.4057 C.ar    1  UNL1        0.1831
      8 N          61.6720   87.3076    9.9561 N.ar    1  UNL1       -0.2236
      9 C          62.2108   86.3284   10.9565 C.ar    1  UNL1        0.0991
     10 C          62.1432   84.8319   11.0330 C.ar    1  UNL1        0.0206
     11 C          62.7901   84.1095   12.1774 C.ar    1  UNL1        0.0017
     12 C          63.5044   84.8836   13.2453 C.ar    1  UNL1        0.0016
     13 C          63.5720   86.3801   13.1688 C.ar    1  UNL1        0.0191
     14 C          62.9252   87.1025   12.0244 C.ar    1  UNL1        0.0835
     15 C          62.7225   82.6129   12.2540 C.ar    1  UNL1        0.0044
     16 C          62.4634   81.9402   13.5694 C.ar    1  UNL1        0.0208
     17 C          62.3959   80.4437   13.6460 C.ar    1  UNL1        0.1003
     18 N          62.5874   79.6199   12.4072 N.ar    1  UNL1       -0.2296
     19 C          62.8466   80.2926   11.0918 C.ar    1  UNL1        0.1254
     20 N          63.0382   79.4688    9.8530 N.pl3   1  UNL1       -0.3426
     21 C          62.9141   81.7892   11.0152 C.ar    1  UNL1        0.0339
     22 H          62.9938   78.4866    9.9032 H       1  UNL1        0.1437
     23 H          63.2082   79.9104    8.9896 H       1  UNL1        0.1437
     24 C          64.4168   91.5498   15.7359 C.2     1  UNL1        0.2518
     25 N          65.5799   92.4619   15.9913 N.am    1  UNL1       -0.3248
     26 O          63.5362   91.1211   16.8720 O.2     1  UNL1       -0.2697
     27 H          66.1579   92.7433   15.2457 H       1  UNL1        0.1453
     28 H          65.7654   92.7791   16.9047 H       1  UNL1        0.1453
     29 O          65.0961   93.1504   12.9742 O.3     1  UNL1       -0.4740
     30 C          67.5607   92.3582   12.7548 C.3     1  UNL1        0.0523
     31 C          66.4529   93.2845   12.3489 C.3     1  UNL1        0.1882
     32 C          66.7019   94.3448   11.3176 C.ar    1  UNL1        0.0211
     33 C          66.3093   95.7661   11.5932 C.ar    1  UNL1       -0.0009
     34 C          66.5583   96.8265   10.5619 C.ar    1  UNL1       -0.0002
     35 C          67.1999   96.4656    9.2549 C.ar    1  UNL1       -0.0001
     36 C          67.5924   95.0444    8.9793 C.ar    1  UNL1        0.0036
     37 C          67.3434   93.9839   10.0106 C.ar    1  UNL1        0.0708
     38 C          67.7359   92.5628    9.7349 C.3     1  UNL1        0.4184
     39 F          68.1285   91.1415    9.4593 F       1  UNL1       -0.1659
     40 F          69.1715   92.9818    9.6189 F       1  UNL1       -0.1659
     41 F          66.3004   92.1437    9.8509 F       1  UNL1       -0.1659
@<TRIPOS>BOND
     1    31    30    1
     2    31    29    1
     3    29     1    1
     4     1     2   ar
     5     2     3   ar
     6     3     6    1
     7     6     7   ar
     8     7     8   ar
     9     8     9   ar
    10     9    10   ar
    11    10    11   ar
    12    11    15    1
    13    15    16   ar
    14    16    17   ar
    15    17    18   ar
    16    18    19   ar
    17    19    20    1
    18    19    21   ar
    19    11    12   ar
    20    12    13   ar
    21    13    14   ar
    22     3     4   ar
    23     4     5   ar
    24     5    24    1
    25    24    25   am
    26    24    26    2
    27    31    32    1
    28    32    33   ar
    29    33    34   ar
    30    34    35   ar
    31    35    36   ar
    32    36    37   ar
    33    37    38    1
    34    38    39    1
    35    38    40    1
    36    38    41    1
    37     5     1   ar
    38    37    32   ar
    39    14     6   ar
    40    14     9   ar
    41    21    15   ar
    42    20    22    1
    43    20    23    1
    44    25    27    1
    45    25    28    1
@<TRIPOS>MOLECULE
*****
 41 45 0 0 0
SMALL
GASTEIGER

@<TRIPOS>ATOM
      1 C          64.0832   91.1109   12.6471 C.ar    1  UNL1        0.1512
      2 C          64.4249   90.0762   13.6780 C.ar    1  UNL1        0.0619
      3 C          63.8117   88.7757   13.2507 C.ar    1  UNL1        0.0987
      4 S          63.0910   89.0065   11.9556 S.2     1  UNL1       -0.0618
      5 C          63.2588   90.4497   11.5826 C.ar    1  UNL1        0.1178
      6 N          63.9031   87.4731   13.9888 N.ar    1  UNL1       -0.2823
      7 C          64.3197   87.2975   15.4190 C.ar    1  UNL1        0.1831
      8 N          64.2680   85.8332   15.7403 N.ar    1  UNL1       -0.2236
      9 C          63.8196   85.1039   14.5087 C.ar    1  UNL1        0.0991
     10 C          63.5875   83.6478   14.2331 C.ar    1  UNL1        0.0206
     11 C          63.1298   83.2053   12.8749 C.ar    1  UNL1        0.0017
     12 C          62.9043   84.2188   11.7923 C.ar    1  UNL1        0.0016
     13 C          63.1364   85.6749   12.0680 C.ar    1  UNL1        0.0191
     14 C          63.5941   86.1174   13.4261 C.ar    1  UNL1        0.0835
     15 C          62.8977   81.7492   12.5992 C.ar    1  UNL1        0.0044
     16 C          62.5390   80.8213   13.7218 C.ar    1  UNL1        0.0208
     17 C          62.3068   79.3652   13.4462 C.ar    1  UNL1        0.1003
     18 N          62.4334   78.8371   12.0479 N.ar    1  UNL1       -0.2296
     19 C          62.7921   79.7650   10.9253 C.ar    1  UNL1        0.1254
     20 N          62.9187   79.2369    9.5271 N.pl3   1  UNL1       -0.3426
     21 C          63.0243   81.2211   11.2010 C.ar    1  UNL1        0.0339
     22 H          62.7663   78.2813    9.3462 H       1  UNL1        0.1437
     23 H          63.1541   79.8460    8.7903 H       1  UNL1        0.1437
     24 C          62.7001   91.1150   10.3596 C.2     1  UNL1        0.2518
     25 N          63.4445   92.2467    9.7153 N.am    1  UNL1       -0.3248
     26 O          61.3972   90.6485    9.7811 O.2     1  UNL1       -0.2697
     27 H          64.2996   92.5529   10.0950 H       1  UNL1        0.1453
     28 H          63.0779   92.6833    8.9127 H       1  UNL1        0.1453
     29 O          64.4938   92.5532   12.6757 O.3     1  UNL1       -0.4740
     30 C          66.6318   93.1883   14.0082 C.3     1  UNL1        0.0523
     31 C          65.9484   92.9186   12.7004 C.3     1  UNL1        0.1882
     32 C          66.7195   93.0144   11.4174 C.ar    1  UNL1        0.0211
     33 C          67.5312   91.8463   10.9412 C.ar    1  UNL1       -0.0009
     34 C          68.3023   91.9421    9.6582 C.ar    1  UNL1       -0.0002
     35 C          68.2618   93.2060    8.8514 C.ar    1  UNL1       -0.0001
     36 C          67.4501   94.3740    9.3275 C.ar    1  UNL1        0.0036
     37 C          66.6789   94.2782   10.6105 C.ar    1  UNL1        0.0708
     38 C          65.8672   95.4463   11.0867 C.3     1  UNL1        0.4184
     39 F          65.0555   96.6144   11.5629 F       1  UNL1       -0.1659
     40 F          66.9242   95.7672   12.1015 F       1  UNL1       -0.1659
     41 F          64.8102   95.1255   10.0720 F       1  UNL1       -0.1659
@<TRIPOS>BOND
     1    31    30    1
     2    31    29    1
     3    29     1    1
     4     1     2   ar
     5     2     3   ar
     6     3     6    1
     7     6     7   ar
     8     7     8   ar
     9     8     9   ar
    10     9    10   ar
    11    10    11   ar
    12    11    15    1
    13    15    16   ar
    14    16    17   ar
    15    17    18   ar
    16    18    19   ar
    17    19    20    1
    18    19    21   ar
    19    11    12   ar
    20    12    13   ar
    21    13    14   ar
    22     3     4   ar
    23     4     5   ar
    24     5    24    1
    25    24    25   am
    26    24    26    2
    27    31    32    1
    28    32    33   ar
    29    33    34   ar
    30    34    35   ar
    31    35    36   ar
    32    36    37   ar
    33    37    38    1
    34    38    39    1
    35    38    40    1
    36    38    41    1
    37     5     1   ar
    38    37    32   ar
    39    14     6   ar
    40    14     9   ar
    41    21    15   ar
    42    20    22    1
    43    20    23    1
    44    25    27    1
    45    25    28    1
@<TRIPOS>MOLECULE
*****
 41 45 0 0 0
SMALL
GASTEIGER

@<TRIPOS>ATOM
      1 C          65.4693   92.5667   13.4793 C.ar    1  UNL1        0.1512
      2 C          64.8678   91.7425   12.3798 C.ar    1  UNL1        0.0619
      3 C          64.0976   90.6202   13.0098 C.ar    1  UNL1        0.0987
      4 S          64.2231   90.7505   14.4989 S.2     1  UNL1       -0.0618
      5 C          65.0708   91.9535   14.7890 C.ar    1  UNL1        0.1178
      6 N          63.3358   89.5545   12.2792 N.ar    1  UNL1       -0.2823
      7 C          62.4319   89.7673   11.1012 C.ar    1  UNL1        0.1831
      8 N          61.8815   88.4332   10.6923 N.ar    1  UNL1       -0.2236
      9 C          62.4453   87.3958   11.6175 C.ar    1  UNL1        0.0991
     10 C          62.2563   85.9097   11.6937 C.ar    1  UNL1        0.0206
     11 C          62.9661   85.1167   12.7506 C.ar    1  UNL1        0.0017
     12 C          63.8649   85.8097   13.7314 C.ar    1  UNL1        0.0016
     13 C          64.0539   87.2957   13.6552 C.ar    1  UNL1        0.0191
     14 C          63.3441   88.0888   12.5983 C.ar    1  UNL1        0.0835
     15 C          62.7772   83.6305   12.8268 C.ar    1  UNL1        0.0044
     16 C          62.3448   82.9945   14.1147 C.ar    1  UNL1        0.0208
     17 C          62.1559   81.5085   14.1909 C.ar    1  UNL1        0.1003
     18 N          62.3993   80.6583   12.9792 N.ar    1  UNL1       -0.2296
     19 C          62.8317   81.2943   11.6914 C.ar    1  UNL1        0.1254
     20 N          63.0751   80.4442   10.4798 N.pl3   1  UNL1       -0.3426
     21 C          63.0206   82.7804   11.6152 C.ar    1  UNL1        0.0339
     22 H          62.9511   79.4688   10.5298 H       1  UNL1        0.1437
     23 H          63.3589   80.8617    9.6345 H       1  UNL1        0.1437
     24 C          65.4529   92.4553   16.1501 C.2     1  UNL1        0.2518
     25 N          66.8081   93.0581   16.3739 N.am    1  UNL1       -0.3248
     26 O          64.4798   92.3543   17.2871 O.2     1  UNL1       -0.2697
     27 H          67.4468   93.1244   15.6276 H       1  UNL1        0.1453
     28 H          67.0589   93.3874   17.2672 H       1  UNL1        0.1453
     29 O          66.3199   93.7891   13.3006 O.3     1  UNL1       -0.4740
     30 C          65.8198   95.7607   11.6842 C.3     1  UNL1        0.0523
     31 C          66.4464   94.4235   11.9473 C.3     1  UNL1        0.1882
     32 C          67.1996   93.7206   10.8570 C.ar    1  UNL1        0.0211
     33 C          67.9292   92.4438   11.1523 C.ar    1  UNL1       -0.0009
     34 C          68.6824   91.7409   10.0621 C.ar    1  UNL1       -0.0002
     35 C          68.7058   92.3148    8.6764 C.ar    1  UNL1       -0.0001
     36 C          67.9762   93.5916    8.3811 C.ar    1  UNL1        0.0036
     37 C          67.2230   94.2946    9.4714 C.ar    1  UNL1        0.0708
     38 C          66.4934   95.5713    9.1760 C.3     1  UNL1        0.4184
     39 F          65.7636   96.8482    8.8806 F       1  UNL1       -0.1659
     40 F          65.1870   94.8356    9.2225 F       1  UNL1       -0.1659
     41 F          67.7996   96.3072    9.1295 F       1  UNL1       -0.1659
@<TRIPOS>BOND
     1    31    30    1
     2    31    29    1
     3    29     1    1
     4     1     2   ar
     5     2     3   ar
     6     3     6    1
     7     6     7   ar
     8     7     8   ar
     9     8     9   ar
    10     9    10   ar
    11    10    11   ar
    12    11    15    1
    13    15    16   ar
    14    16    17   ar
    15    17    18   ar
    16    18    19   ar
    17    19    20    1
    18    19    21   ar
    19    11    12   ar
    20    12    13   ar
    21    13    14   ar
    22     3     4   ar
    23     4     5   ar
    24     5    24    1
    25    24    25   am
    26    24    26    2
    27    31    32    1
    28    32    33   ar
    29    33    34   ar
    30    34    35   ar
    31    35    36   ar
    32    36    37   ar
    33    37    38    1
    34    38    39    1
    35    38    40    1
    36    38    41    1
    37     5     1   ar
    38    37    32   ar
    39    14     6   ar
    40    14     9   ar
    41    21    15   ar
    42    20    22    1
    43    20    23    1
    44    25    27    1
    45    25    28    1
@<TRIPOS>MOLECULE
*****
 41 45 0 0 0
SMALL
GASTEIGER

@<TRIPOS>ATOM
      1 C          65.1055   91.8036   13.5283 C.ar    1  UNL1        0.1512
      2 C          64.0515   90.8099   13.9177 C.ar    1  UNL1        0.0619
      3 C          64.6404   89.8873   14.9433 C.ar    1  UNL1        0.0987
      4 S          66.0585   90.3108   15.1878 S.2     1  UNL1       -0.0618
      5 C          66.3459   91.4951   14.3133 C.ar    1  UNL1        0.1178
      6 N          63.9352   88.7422   15.6078 N.ar    1  UNL1       -0.2823
      7 C          63.2254   88.7907   16.9283 C.ar    1  UNL1        0.1831
      8 N          62.6675   87.4261   17.2050 N.ar    1  UNL1       -0.2236
      9 C          63.0325   86.5342   16.0555 C.ar    1  UNL1        0.0991
     10 C          62.7527   85.0866   15.7801 C.ar    1  UNL1        0.0206
     11 C          63.2563   84.4523   14.5175 C.ar    1  UNL1        0.0017
     12 C          64.0397   85.2658   13.5304 C.ar    1  UNL1        0.0016
     13 C          64.3196   86.7134   13.8058 C.ar    1  UNL1        0.0191
     14 C          63.8160   87.3477   15.0683 C.ar    1  UNL1        0.0835
     15 C          62.9764   83.0046   14.2421 C.ar    1  UNL1        0.0044
     16 C          64.0896   82.0931   13.8179 C.ar    1  UNL1        0.0208
     17 C          63.8098   80.6454   13.5424 C.ar    1  UNL1        0.1003
     18 N          62.4168   80.1092   13.6912 N.ar    1  UNL1       -0.2296
     19 C          61.3036   81.0207   14.1155 C.ar    1  UNL1        0.1254
     20 N          59.9107   80.4845   14.2643 N.pl3   1  UNL1       -0.3426
     21 C          61.5835   82.4684   14.3909 C.ar    1  UNL1        0.0339
     22 H          59.7270   79.5344   14.0835 H       1  UNL1        0.1437
     23 H          59.1801   81.0828   14.5427 H       1  UNL1        0.1437
     24 C          67.6456   92.2402   14.2372 C.2     1  UNL1        0.2518
     25 N          68.6824   91.8387   13.2302 N.am    1  UNL1       -0.3248
     26 O          67.9085   93.3867   15.1680 O.2     1  UNL1       -0.2697
     27 H          68.5099   91.0862   12.6193 H       1  UNL1        0.1453
     28 H          69.5354   92.3277   13.1803 H       1  UNL1        0.1453
     29 O          64.9469   92.9112   12.5293 O.3     1  UNL1       -0.4740
     30 C          63.9178   91.9925   10.3278 C.3     1  UNL1        0.0523
     31 C          65.0648   92.6208   11.0625 C.3     1  UNL1        0.1882
     32 C          66.3295   92.9587   10.3303 C.ar    1  UNL1        0.0211
     33 C          67.2445   91.8634    9.8687 C.ar    1  UNL1       -0.0009
     34 C          68.5093   92.2013    9.1365 C.ar    1  UNL1       -0.0002
     35 C          68.8591   93.6346    8.8658 C.ar    1  UNL1       -0.0001
     36 C          67.9442   94.7299    9.3273 C.ar    1  UNL1        0.0036
     37 C          66.6793   94.3920   10.0596 C.ar    1  UNL1        0.0708
     38 C          65.7644   95.4874   10.5211 C.3     1  UNL1        0.4184
     39 F          64.8494   96.5828   10.9826 F       1  UNL1       -0.1659
     40 F          65.2218   95.6206    9.1291 F       1  UNL1       -0.1659
     41 F          66.3070   95.3542   11.9131 F       1  UNL1       -0.1659
@<TRIPOS>BOND
     1    31    30    1
     2    31    29    1
     3    29     1    1
     4     1     2   ar
     5     2     3   ar
     6     3     6    1
     7     6     7   ar
     8     7     8   ar
     9     8     9   ar
    10     9    10   ar
    11    10    11   ar
    12    11    15    1
    13    15    16   ar
    14    16    17   ar
    15    17    18   ar
    16    18    19   ar
    17    19    20    1
    18    19    21   ar
    19    11    12   ar
    20    12    13   ar
    21    13    14   ar
    22     3     4   ar
    23     4     5   ar
    24     5    24    1
    25    24    25   am
    26    24    26    2
    27    31    32    1
    28    32    33   ar
    29    33    34   ar
    30    34    35   ar
    31    35    36   ar
    32    36    37   ar
    33    37    38    1
    34    38    39    1
    35    38    40    1
    36    38    41    1
    37     5     1   ar
    38    37    32   ar
    39    14     6   ar
    40    14     9   ar
    41    21    15   ar
    42    20    22    1
    43    20    23    1
    44    25    27    1
    45    25    28    1
@<TRIPOS>MOLECULE
*****
 41 45 0 0 0
SMALL
GASTEIGER

@<TRIPOS>ATOM
      1 C          63.5009   87.1178   14.4323 C.ar    1  UNL1        0.1512
      2 C          64.1608   88.3481   13.8838 C.ar    1  UNL1        0.0619
      3 C          64.2964   89.3390   15.0016 C.ar    1  UNL1        0.0987
      4 S          63.7204   88.7212   16.2411 S.2     1  UNL1       -0.0618
      5 C          63.2288   87.3484   15.8893 C.ar    1  UNL1        0.1178
      6 N          64.9018   90.7075   14.8981 N.ar    1  UNL1       -0.2823
      7 C          65.4439   91.5202   16.0364 C.ar    1  UNL1        0.1831
      8 N          65.9485   92.8185   15.4799 N.ar    1  UNL1       -0.2236
      9 C          65.7183   92.8083   13.9977 C.ar    1  UNL1        0.0991
     10 C          66.0141   93.8184   12.9291 C.ar    1  UNL1        0.0206
     11 C          65.6631   93.5239   11.5008 C.ar    1  UNL1        0.0017
     12 C          65.0162   92.2192   11.1412 C.ar    1  UNL1        0.0016
     13 C          64.7204   91.2090   12.2099 C.ar    1  UNL1        0.0191
     14 C          65.0714   91.5036   13.6381 C.ar    1  UNL1        0.0835
     15 C          65.9589   94.5340   10.4321 C.ar    1  UNL1        0.0044
     16 C          65.2276   95.8435   10.4147 C.ar    1  UNL1        0.0208
     17 C          65.5234   96.8537    9.3461 C.ar    1  UNL1        0.1003
     18 N          66.5506   96.5543    8.2947 N.ar    1  UNL1       -0.2296
     19 C          67.2819   95.2448    8.3120 C.ar    1  UNL1        0.1254
     20 N          68.3091   94.9454    7.2607 N.pl3   1  UNL1       -0.3426
     21 C          66.9861   94.2346    9.3808 C.ar    1  UNL1        0.0339
     22 H          68.5032   95.6084    6.5593 H       1  UNL1        0.1437
     23 H          68.7891   94.0859    7.2721 H       1  UNL1        0.1437
     24 C          62.5790   86.3768   16.8295 C.2     1  UNL1        0.2518
     25 N          61.8444   85.1863   16.2881 N.am    1  UNL1       -0.3248
     26 O          62.6640   86.5956   18.3110 O.2     1  UNL1       -0.2697
     27 H          61.7886   85.0427   15.3158 H       1  UNL1        0.1453
     28 H          61.4179   84.5486   16.9052 H       1  UNL1        0.1453
     29 O          63.1711   85.8752   13.6597 O.3     1  UNL1       -0.4740
     30 C          65.5108   84.8479   14.1293 C.3     1  UNL1        0.0523
     31 C          64.0708   84.6780   13.7450 C.3     1  UNL1        0.1882
     32 C          63.5306   83.3110   13.4459 C.ar    1  UNL1        0.0211
     33 C          63.2930   82.3377   14.5623 C.ar    1  UNL1       -0.0009
     34 C          62.7528   80.9707   14.2632 C.ar    1  UNL1       -0.0002
     35 C          62.4501   80.5770   12.8478 C.ar    1  UNL1       -0.0001
     36 C          62.6877   81.5503   11.7315 C.ar    1  UNL1        0.0036
     37 C          63.2279   82.9173   12.0305 C.ar    1  UNL1        0.0708
     38 C          63.4655   83.8906   10.9142 C.3     1  UNL1        0.4184
     39 F          63.7030   84.8639    9.7978 F       1  UNL1       -0.1659
     40 F          62.0797   84.4357   11.0946 F       1  UNL1       -0.1659
     41 F          64.8512   83.3455   10.7338 F       1  UNL1       -0.1659
@<TRIPOS>BOND
     1    31    30    1
     2    31    29    1
     3    29     1    1
     4     1     2   ar
     5     2     3   ar
     6     3     6    1
     7     6     7   ar
     8     7     8   ar
     9     8     9   ar
    10     9    10   ar
    11    10    11   ar
    12    11    15    1
    13    15    16   ar
    14    16    17   ar
    15    17    18   ar
    16    18    19   ar
    17    19    20    1
    18    19    21   ar
    19    11    12   ar
    20    12    13   ar
    21    13    14   ar
    22     3     4   ar
    23     4     5   ar
    24     5    24    1
    25    24    25   am
    26    24    26    2
    27    31    32    1
    28    32    33   ar
    29    33    34   ar
    30    34    35   ar
    31    35    36   ar
    32    36    37   ar
    33    37    38    1
    34    38    39    1
    35    38    40    1
    36    38    41    1
    37     5     1   ar
    38    37    32   ar
    39    14     6   ar
    40    14     9   ar
    41    21    15   ar
    42    20    22    1
    43    20    23    1
    44    25    27    1
    45    25    28    1
@<TRIPOS>MOLECULE
*****
 41 45 0 0 0
SMALL
GASTEIGER

@<TRIPOS>ATOM
      1 C          65.9809   93.0894   13.2533 C.ar    1  UNL1        0.1512
      2 C          65.0268   92.0483   12.7473 C.ar    1  UNL1        0.0619
      3 C          65.1809   90.8244   13.6006 C.ar    1  UNL1        0.0987
      4 S          66.2302   91.1089   14.6340 S.2     1  UNL1       -0.0618
      5 C          66.7247   92.5087   14.4194 C.ar    1  UNL1        0.1178
      6 N          64.4194   89.5412   13.4475 N.ar    1  UNL1       -0.2823
      7 C          64.3401   88.4368   14.4594 C.ar    1  UNL1        0.1831
      8 N          63.4752   87.3502   13.8928 N.ar    1  UNL1       -0.2236
      9 C          63.0198   87.7830   12.5307 C.ar    1  UNL1        0.0991
     10 C          62.1492   87.1190   11.5054 C.ar    1  UNL1        0.0206
     11 C          61.8622   87.8092   10.2050 C.ar    1  UNL1        0.0017
     12 C          62.4457   89.1634    9.9298 C.ar    1  UNL1        0.0016
     13 C          63.3163   89.8273   10.9550 C.ar    1  UNL1        0.0191
     14 C          63.6034   89.1372   12.2554 C.ar    1  UNL1        0.0835
     15 C          60.9915   87.1452    9.1797 C.ar    1  UNL1        0.0044
     16 C          59.5384   87.5047    9.0836 C.ar    1  UNL1        0.0208
     17 C          58.6678   86.8408    8.0583 C.ar    1  UNL1        0.1003
     18 N          59.2502   85.8174    7.1291 N.ar    1  UNL1       -0.2296
     19 C          60.7034   85.4579    7.2252 C.ar    1  UNL1        0.1254
     20 N          61.2859   84.4345    6.2960 N.pl3   1  UNL1       -0.3426
     21 C          61.5740   86.1219    8.2505 C.ar    1  UNL1        0.0339
     22 H          60.7144   83.9988    5.6231 H       1  UNL1        0.1437
     23 H          62.2396   84.1986    6.3591 H       1  UNL1        0.1437
     24 C          67.7780   93.2056   15.2288 C.2     1  UNL1        0.2518
     25 N          67.4133   93.8650   16.5257 N.am    1  UNL1       -0.3248
     26 O          69.1960   93.2430   14.7411 O.2     1  UNL1       -0.2697
     27 H          66.4826   93.8405   16.8458 H       1  UNL1        0.1453
     28 H          68.1046   94.3224   17.0569 H       1  UNL1        0.1453
     29 O          66.1598   94.4687   12.6919 O.3     1  UNL1       -0.4740
     30 C          65.4136   95.7331   10.5484 C.3     1  UNL1        0.0523
     31 C          66.2410   94.6696   11.2076 C.3     1  UNL1        0.1882
     32 C          67.1495   93.8072   10.3826 C.ar    1  UNL1        0.0211
     33 C          67.6493   92.5039   10.9318 C.ar    1  UNL1       -0.0009
     34 C          68.5579   91.6414   10.1068 C.ar    1  UNL1       -0.0002
     35 C          68.9666   92.0822    8.7326 C.ar    1  UNL1       -0.0001
     36 C          68.4668   93.3854    8.1833 C.ar    1  UNL1        0.0036
     37 C          67.5583   94.2480    9.0083 C.ar    1  UNL1        0.0708
     38 C          67.0585   95.5512    8.4591 C.3     1  UNL1        0.4184
     39 F          66.5588   96.8545    7.9099 F       1  UNL1       -0.1659
     40 F          67.9700   96.2934    9.3909 F       1  UNL1       -0.1659
     41 F          66.1470   94.8090    7.5273 F       1  UNL1       -0.1659
@<TRIPOS>BOND
     1    31    30    1
     2    31    29    1
     3    29     1    1
     4     1     2   ar
     5     2     3   ar
     6     3     6    1
     7     6     7   ar
     8     7     8   ar
     9     8     9   ar
    10     9    10   ar
    11    10    11   ar
    12    11    15    1
    13    15    16   ar
    14    16    17   ar
    15    17    18   ar
    16    18    19   ar
    17    19    20    1
    18    19    21   ar
    19    11    12   ar
    20    12    13   ar
    21    13    14   ar
    22     3     4   ar
    23     4     5   ar
    24     5    24    1
    25    24    25   am
    26    24    26    2
    27    31    32    1
    28    32    33   ar
    29    33    34   ar
    30    34    35   ar
    31    35    36   ar
    32    36    37   ar
    33    37    38    1
    34    38    39    1
    35    38    40    1
    36    38    41    1
    37     5     1   ar
    38    37    32   ar
    39    14     6   ar
    40    14     9   ar
    41    21    15   ar
    42    20    22    1
    43    20    23    1
    44    25    27    1
    45    25    28    1
