@<TRIPOS>MOLECULE
*****
 21 23 0 0 0
SMALL
GASTEIGER

@<TRIPOS>ATOM
      1 N          62.9342   86.7782   12.0346 N.pl3   1  UNL1       -0.2860
      2 C          63.3694   88.0740   12.6525 C.ar    1  UNL1        0.0576
      3 C          63.0996   89.3696   11.9465 C.ar    1  UNL1        0.0153
      4 C          63.5348   90.6652   12.5644 C.ar    1  UNL1        0.0013
      5 C          64.2399   90.6652   13.8883 C.ar    1  UNL1        0.0006
      6 C          64.5098   89.3696   14.5944 C.ar    1  UNL1        0.0077
      7 C          64.0745   88.0740   13.9764 C.ar    1  UNL1        0.0431
      8 S          64.3444   86.7783   14.6825 S.3     1  UNL1       -0.0844
      9 C          63.9091   85.4826   14.0646 C.ar    1  UNL1        0.0431
     10 C          64.1790   84.1869   14.7706 C.ar    1  UNL1        0.0086
     11 C          63.7437   82.8913   14.1527 C.ar    1  UNL1        0.0120
     12 C          63.0386   82.8913   12.8287 C.ar    1  UNL1        0.0589
     13 CL         62.6034   81.5957   12.2108 Cl      1  UNL1       -0.0822
     14 C          62.7688   84.1869   12.1227 C.ar    1  UNL1        0.0267
     15 C          63.2040   85.4826   12.7406 C.ar    1  UNL1        0.0585
     16 C          62.2291   86.7782   10.7106 C.3     1  UNL1        0.0970
     17 C          60.7417   86.9634   10.6530 C.3     1  UNL1        0.0391
     18 C          60.1517   88.0269    9.7750 C.3     1  UNL1        0.0739
     19 C          59.8328   86.2967    7.8633 C.3     1  UNL1        0.0897
     20 N          59.8064   87.7157    8.3489 N.3     1  UNL1       -0.2703
     21 C          59.4346   88.8234    7.4083 C.3     1  UNL1        0.0897
@<TRIPOS>BOND
     1    19    20    1
     2    20    21    1
     3    20    18    1
     4    18    17    1
     5    17    16    1
     6    16     1    1
     7     1     2    1
     8     2     3   ar
     9     3     4   ar
    10     4     5   ar
    11     5     6   ar
    12     6     7   ar
    13     7     8    1
    14     8     9    1
    15     9    10   ar
    16    10    11   ar
    17    11    12   ar
    18    12    13    1
    19    12    14   ar
    20    14    15   ar
    21    15     1    1
    22     7     2   ar
    23    15     9   ar
@<TRIPOS>MOLECULE
*****
 21 23 0 0 0
SMALL
GASTEIGER

@<TRIPOS>ATOM
      1 N          61.6678   87.1826   10.8459 N.pl3   1  UNL1       -0.2860
      2 C          60.8336   87.4916    9.6380 C.ar    1  UNL1        0.0576
      3 C          60.1146   86.3878    8.9208 C.ar    1  UNL1        0.0153
      4 C          59.2805   86.6968    7.7130 C.ar    1  UNL1        0.0013
      5 C          59.1654   88.1097    7.2225 C.ar    1  UNL1        0.0006
      6 C          59.8845   89.2135    7.9398 C.ar    1  UNL1        0.0077
      7 C          60.7186   88.9045    9.1475 C.ar    1  UNL1        0.0431
      8 S          61.4377   90.0083    9.8648 S.3     1  UNL1       -0.0844
      9 C          62.2718   89.6993   11.0726 C.ar    1  UNL1        0.0431
     10 C          62.9909   90.8031   11.7899 C.ar    1  UNL1        0.0086
     11 C          63.8250   90.4941   12.9977 C.ar    1  UNL1        0.0120
     12 C          63.9400   89.0812   13.4882 C.ar    1  UNL1        0.0589
     13 CL         64.7741   88.7722   14.6960 Cl      1  UNL1       -0.0822
     14 C          63.2210   87.9774   12.7709 C.ar    1  UNL1        0.0267
     15 C          62.3868   88.2864   11.5631 C.ar    1  UNL1        0.0585
     16 C          61.7828   85.7697   11.3364 C.3     1  UNL1        0.0970
     17 C          62.8813   84.8855   10.8252 C.3     1  UNL1        0.0391
     18 C          63.0667   83.5120   11.3988 C.3     1  UNL1        0.0739
     19 C          62.5882   82.3260   13.6604 C.3     1  UNL1        0.0897
     20 N          63.3498   83.3423   12.8621 N.3     1  UNL1       -0.2703
     21 C          64.3943   84.1888   13.5271 C.3     1  UNL1        0.0897
@<TRIPOS>BOND
     1    19    20    1
     2    20    21    1
     3    20    18    1
     4    18    17    1
     5    17    16    1
     6    16     1    1
     7     1     2    1
     8     2     3   ar
     9     3     4   ar
    10     4     5   ar
    11     5     6   ar
    12     6     7   ar
    13     7     8    1
    14     8     9    1
    15     9    10   ar
    16    10    11   ar
    17    11    12   ar
    18    12    13    1
    19    12    14   ar
    20    14    15   ar
    21    15     1    1
    22     7     2   ar
    23    15     9   ar
@<TRIPOS>MOLECULE
*****
 21 23 0 0 0
SMALL
GASTEIGER

@<TRIPOS>ATOM
      1 N          62.3319   86.3537   11.5535 N.pl3   1  UNL1       -0.2860
      2 C          63.0915   87.1176   12.5974 C.ar    1  UNL1        0.0576
      3 C          63.8357   86.3818   13.6720 C.ar    1  UNL1        0.0153
      4 C          64.5952   87.1457   14.7158 C.ar    1  UNL1        0.0013
      5 C          64.6106   88.6453   14.6850 C.ar    1  UNL1        0.0006
      6 C          63.8665   89.3810   13.6104 C.ar    1  UNL1        0.0077
      7 C          63.1069   88.6172   12.5666 C.ar    1  UNL1        0.0431
      8 S          62.3627   89.3530   11.4919 S.3     1  UNL1       -0.0844
      9 C          61.6032   88.5891   10.4481 C.ar    1  UNL1        0.0431
     10 C          60.8590   89.3249    9.3734 C.ar    1  UNL1        0.0086
     11 C          60.0994   88.5610    8.3296 C.ar    1  UNL1        0.0120
     12 C          60.0840   87.0614    8.3604 C.ar    1  UNL1        0.0589
     13 CL         59.3245   86.2976    7.3166 Cl      1  UNL1       -0.0822
     14 C          60.8282   86.3257    9.4350 C.ar    1  UNL1        0.0267
     15 C          61.5878   87.0895   10.4789 C.ar    1  UNL1        0.0585
     16 C          62.3166   84.8541   11.5843 C.3     1  UNL1        0.0970
     17 C          63.3737   84.0781   10.8561 C.3     1  UNL1        0.0391
     18 C          64.2210   83.0869   11.5975 C.3     1  UNL1        0.0739
     19 C          62.8463   81.0266   12.3819 C.3     1  UNL1        0.0897
     20 N          63.6235   82.2685   12.7036 N.3     1  UNL1       -0.2703
     21 C          63.8033   82.6921   14.1312 C.3     1  UNL1        0.0897
@<TRIPOS>BOND
     1    19    20    1
     2    20    21    1
     3    20    18    1
     4    18    17    1
     5    17    16    1
     6    16     1    1
     7     1     2    1
     8     2     3   ar
     9     3     4   ar
    10     4     5   ar
    11     5     6   ar
    12     6     7   ar
    13     7     8    1
    14     8     9    1
    15     9    10   ar
    16    10    11   ar
    17    11    12   ar
    18    12    13    1
    19    12    14   ar
    20    14    15   ar
    21    15     1    1
    22     7     2   ar
    23    15     9   ar
@<TRIPOS>MOLECULE
*****
 21 23 0 0 0
SMALL
GASTEIGER

@<TRIPOS>ATOM
      1 N          62.8952   85.9106   11.9203 N.pl3   1  UNL1       -0.2860
      2 C          63.0725   84.5325   12.4854 C.ar    1  UNL1        0.0576
      3 C          62.6244   83.3361   11.6994 C.ar    1  UNL1        0.0153
      4 C          62.8017   81.9581   12.2645 C.ar    1  UNL1        0.0013
      5 C          63.4272   81.7763   13.6158 C.ar    1  UNL1        0.0006
      6 C          63.8753   82.9727   14.4018 C.ar    1  UNL1        0.0077
      7 C          63.6980   84.3507   13.8367 C.ar    1  UNL1        0.0431
      8 S          64.1461   85.5472   14.6227 S.3     1  UNL1       -0.0844
      9 C          63.9688   86.9252   14.0576 C.ar    1  UNL1        0.0431
     10 C          64.4169   88.1216   14.8436 C.ar    1  UNL1        0.0086
     11 C          64.2396   89.4997   14.2785 C.ar    1  UNL1        0.0120
     12 C          63.6142   89.6814   12.9272 C.ar    1  UNL1        0.0589
     13 CL         63.4369   91.0595   12.3621 Cl      1  UNL1       -0.0822
     14 C          63.1661   88.4851   12.1412 C.ar    1  UNL1        0.0267
     15 C          63.3434   87.1069   12.7063 C.ar    1  UNL1        0.0585
     16 C          62.2698   86.0924   10.5690 C.3     1  UNL1        0.0970
     17 C          60.8423   86.5391   10.4573 C.3     1  UNL1        0.0391
     18 C          60.2613   86.8645    9.1132 C.3     1  UNL1        0.0739
     19 C          60.5082   89.4015    9.6159 C.3     1  UNL1        0.0897
     20 N          60.0431   88.2947    8.7168 N.3     1  UNL1       -0.2703
     21 C          59.3598   88.6179    7.4212 C.3     1  UNL1        0.0897
@<TRIPOS>BOND
     1    19    20    1
     2    20    21    1
     3    20    18    1
     4    18    17    1
     5    17    16    1
     6    16     1    1
     7     1     2    1
     8     2     3   ar
     9     3     4   ar
    10     4     5   ar
    11     5     6   ar
    12     6     7   ar
    13     7     8    1
    14     8     9    1
    15     9    10   ar
    16    10    11   ar
    17    11    12   ar
    18    12    13    1
    19    12    14   ar
    20    14    15   ar
    21    15     1    1
    22     7     2   ar
    23    15     9   ar
@<TRIPOS>MOLECULE
*****
 21 23 0 0 0
SMALL
GASTEIGER

@<TRIPOS>ATOM
      1 N          64.2744   90.0815   13.4677 N.pl3   1  UNL1       -0.2860
      2 C          63.4579   89.8670   12.2277 C.ar    1  UNL1        0.0576
      3 C          62.6074   88.6389   12.0929 C.ar    1  UNL1        0.0153
      4 C          61.7909   88.4245   10.8530 C.ar    1  UNL1        0.0013
      5 C          61.8249   89.4382    9.7480 C.ar    1  UNL1        0.0006
      6 C          62.6754   90.6664    9.8828 C.ar    1  UNL1        0.0077
      7 C          63.4919   90.8808   11.1227 C.ar    1  UNL1        0.0431
      8 S          64.3424   92.1090   11.2576 S.3     1  UNL1       -0.0844
      9 C          65.1589   92.3234   12.4975 C.ar    1  UNL1        0.0431
     10 C          66.0094   93.5517   12.6324 C.ar    1  UNL1        0.0086
     11 C          66.8259   93.7661   13.8723 C.ar    1  UNL1        0.0120
     12 C          66.7918   92.7523   14.9773 C.ar    1  UNL1        0.0589
     13 CL         67.6083   92.9667   16.2172 Cl      1  UNL1       -0.0822
     14 C          65.9414   91.5241   14.8425 C.ar    1  UNL1        0.0267
     15 C          65.1248   91.3097   13.6025 C.ar    1  UNL1        0.0585
     16 C          64.2404   89.0677   14.5727 C.3     1  UNL1        0.0970
     17 C          63.2418   89.2026   15.6838 C.3     1  UNL1        0.0391
     18 C          63.2972   88.2722   16.8591 C.3     1  UNL1        0.0739
     19 C          62.0101   86.0663   17.3360 C.3     1  UNL1        0.0897
     20 N          63.1302   86.7955   16.6551 N.3     1  UNL1       -0.2703
     21 C          64.0833   86.0481   15.7703 C.3     1  UNL1        0.0897
@<TRIPOS>BOND
     1    19    20    1
     2    20    21    1
     3    20    18    1
     4    18    17    1
     5    17    16    1
     6    16     1    1
     7     1     2    1
     8     2     3   ar
     9     3     4   ar
    10     4     5   ar
    11     5     6   ar
    12     6     7   ar
    13     7     8    1
    14     8     9    1
    15     9    10   ar
    16    10    11   ar
    17    11    12   ar
    18    12    13    1
    19    12    14   ar
    20    14    15   ar
    21    15     1    1
    22     7     2   ar
    23    15     9   ar
@<TRIPOS>MOLECULE
*****
 21 23 0 0 0
SMALL
GASTEIGER

@<TRIPOS>ATOM
      1 N          61.9681   88.4025   11.2292 N.pl3   1  UNL1       -0.2860
      2 C          61.1566   88.1580    9.9915 C.ar    1  UNL1        0.0576
      3 C          60.5216   89.3103    9.2712 C.ar    1  UNL1        0.0153
      4 C          59.7101   89.0658    8.0337 C.ar    1  UNL1        0.0013
      5 C          59.5336   87.6689    7.5164 C.ar    1  UNL1        0.0006
      6 C          60.1685   86.5166    8.2367 C.ar    1  UNL1        0.0077
      7 C          60.9800   86.7611    9.4742 C.ar    1  UNL1        0.0431
      8 S          61.6150   85.6087   10.1946 S.3     1  UNL1       -0.0844
      9 C          62.4265   85.8532   11.4322 C.ar    1  UNL1        0.0431
     10 C          63.0615   84.7009   12.1526 C.ar    1  UNL1        0.0086
     11 C          63.8730   84.9454   13.3901 C.ar    1  UNL1        0.0120
     12 C          64.0496   86.3423   13.9074 C.ar    1  UNL1        0.0589
     13 CL         64.8611   86.5868   15.1450 Cl      1  UNL1       -0.0822
     14 C          63.4146   87.4946   13.1871 C.ar    1  UNL1        0.0267
     15 C          62.6031   87.2501   11.9495 C.ar    1  UNL1        0.0585
     16 C          62.1447   89.7994   11.7464 C.3     1  UNL1        0.0970
     17 C          63.3585   90.5931   11.3635 C.3     1  UNL1        0.0391
     18 C          64.2189   91.2078   12.4273 C.3     1  UNL1        0.0739
     19 C          65.2791   92.7869   10.6573 C.3     1  UNL1        0.0897
     20 N          65.1765   92.3074   12.0749 N.3     1  UNL1       -0.2703
     21 C          66.0314   92.9274   13.1401 C.3     1  UNL1        0.0897
@<TRIPOS>BOND
     1    19    20    1
     2    20    21    1
     3    20    18    1
     4    18    17    1
     5    17    16    1
     6    16     1    1
     7     1     2    1
     8     2     3   ar
     9     3     4   ar
    10     4     5   ar
    11     5     6   ar
    12     6     7   ar
    13     7     8    1
    14     8     9    1
    15     9    10   ar
    16    10    11   ar
    17    11    12   ar
    18    12    13    1
    19    12    14   ar
    20    14    15   ar
    21    15     1    1
    22     7     2   ar
    23    15     9   ar
@<TRIPOS>MOLECULE
*****
 21 23 0 0 0
SMALL
GASTEIGER

@<TRIPOS>ATOM
      1 N          63.1799   84.5262   12.2059 N.pl3   1  UNL1       -0.2860
      2 C          63.0419   83.0637   12.5095 C.ar    1  UNL1        0.0576
      3 C          62.7201   82.0964   11.4092 C.ar    1  UNL1        0.0153
      4 C          62.5822   80.6340   11.7128 C.ar    1  UNL1        0.0013
      5 C          62.7661   80.1388   13.1167 C.ar    1  UNL1        0.0006
      6 C          63.0879   81.1061   14.2170 C.ar    1  UNL1        0.0077
      7 C          63.2258   82.5686   13.9134 C.ar    1  UNL1        0.0431
      8 S          63.5476   83.5359   15.0138 S.3     1  UNL1       -0.0844
      9 C          63.6856   84.9984   14.7102 C.ar    1  UNL1        0.0431
     10 C          64.0074   85.9658   15.8105 C.ar    1  UNL1        0.0086
     11 C          64.1453   87.4282   15.5069 C.ar    1  UNL1        0.0120
     12 C          63.9614   87.9233   14.1030 C.ar    1  UNL1        0.0589
     13 CL         64.0993   89.3858   13.7994 Cl      1  UNL1       -0.0822
     14 C          63.6396   86.9560   13.0026 C.ar    1  UNL1        0.0267
     15 C          63.5017   85.4935   13.3062 C.ar    1  UNL1        0.0585
     16 C          62.9960   85.0214   10.8020 C.3     1  UNL1        0.0970
     17 C          61.6723   85.5801   10.3711 C.3     1  UNL1        0.0391
     18 C          61.6134   86.8842    9.6322 C.3     1  UNL1        0.0739
     19 C          60.0939   88.3319   11.1638 C.3     1  UNL1        0.0897
     20 N          61.3617   88.1596   10.3807 N.3     1  UNL1       -0.2703
     21 C          62.3776   89.2625   10.3461 C.3     1  UNL1        0.0897
@<TRIPOS>BOND
     1    19    20    1
     2    20    21    1
     3    20    18    1
     4    18    17    1
     5    17    16    1
     6    16     1    1
     7     1     2    1
     8     2     3   ar
     9     3     4   ar
    10     4     5   ar
    11     5     6   ar
    12     6     7   ar
    13     7     8    1
    14     8     9    1
    15     9    10   ar
    16    10    11   ar
    17    11    12   ar
    18    12    13    1
    19    12    14   ar
    20    14    15   ar
    21    15     1    1
    22     7     2   ar
    23    15     9   ar
@<TRIPOS>MOLECULE
*****
 21 23 0 0 0
SMALL
GASTEIGER

@<TRIPOS>ATOM
      1 N          62.5750   88.2243   11.8334 N.pl3   1  UNL1       -0.2860
      2 C          63.2250   87.2133   12.7308 C.ar    1  UNL1        0.0576
      3 C          63.9981   87.6657   13.9340 C.ar    1  UNL1        0.0153
      4 C          64.6481   86.6547   14.8314 C.ar    1  UNL1        0.0013
      5 C          64.5251   85.1914   14.5255 C.ar    1  UNL1        0.0006
      6 C          63.7521   84.7390   13.3224 C.ar    1  UNL1        0.0077
      7 C          63.1020   85.7500   12.4250 C.ar    1  UNL1        0.0431
      8 S          62.3289   85.2977   11.2217 S.3     1  UNL1       -0.0844
      9 C          61.6789   86.3086   10.3244 C.ar    1  UNL1        0.0431
     10 C          60.9058   85.8563    9.1211 C.ar    1  UNL1        0.0086
     11 C          60.2557   86.8673    8.2237 C.ar    1  UNL1        0.0120
     12 C          60.3787   88.3306    8.5295 C.ar    1  UNL1        0.0589
     13 CL         59.7287   89.3416    7.6322 Cl      1  UNL1       -0.0822
     14 C          61.1518   88.7830    9.7327 C.ar    1  UNL1        0.0267
     15 C          61.8019   87.7720   10.6302 C.ar    1  UNL1        0.0585
     16 C          62.6980   89.6877   12.1392 C.3     1  UNL1        0.0970
     17 C          64.0063   90.2474   12.6132 C.3     1  UNL1        0.0391
     18 C          64.2641   91.7229   12.5329 C.3     1  UNL1        0.0739
     19 C          66.2170   93.4252   12.7289 C.3     1  UNL1        0.0897
     20 N          65.3801   92.3337   13.3275 N.3     1  UNL1       -0.2703
     21 C          65.6593   91.8530   14.7207 C.3     1  UNL1        0.0897
@<TRIPOS>BOND
     1    19    20    1
     2    20    21    1
     3    20    18    1
     4    18    17    1
     5    17    16    1
     6    16     1    1
     7     1     2    1
     8     2     3   ar
     9     3     4   ar
    10     4     5   ar
    11     5     6   ar
    12     6     7   ar
    13     7     8    1
    14     8     9    1
    15     9    10   ar
    16    10    11   ar
    17    11    12   ar
    18    12    13    1
    19    12    14   ar
    20    14    15   ar
    21    15     1    1
    22     7     2   ar
    23    15     9   ar
@<TRIPOS>MOLECULE
*****
 21 23 0 0 0
SMALL
GASTEIGER

@<TRIPOS>ATOM
      1 N          61.9132   87.8700   11.2521 N.pl3   1  UNL1       -0.2860
      2 C          61.1208   87.9808    9.9833 C.ar    1  UNL1        0.0576
      3 C          60.5585   89.3066    9.5637 C.ar    1  UNL1        0.0153
      4 C          59.7661   89.4174    8.2949 C.ar    1  UNL1        0.0013
      5 C          59.5360   88.2025    7.4458 C.ar    1  UNL1        0.0006
      6 C          60.0982   86.8767    7.8655 C.ar    1  UNL1        0.0077
      7 C          60.8907   86.7659    9.1342 C.ar    1  UNL1        0.0431
      8 S          61.4530   85.4401    9.5539 S.3     1  UNL1       -0.0844
      9 C          62.2454   85.3293   10.8227 C.ar    1  UNL1        0.0431
     10 C          62.8077   84.0035   11.2424 C.ar    1  UNL1        0.0086
     11 C          63.6001   83.8926   12.5112 C.ar    1  UNL1        0.0120
     12 C          63.8303   85.1076   13.3602 C.ar    1  UNL1        0.0589
     13 CL         64.6227   84.9968   14.6290 Cl      1  UNL1       -0.0822
     14 C          63.2680   86.4333   12.9406 C.ar    1  UNL1        0.0267
     15 C          62.4755   86.5442   11.6718 C.ar    1  UNL1        0.0585
     16 C          62.1434   89.0849   12.1012 C.3     1  UNL1        0.0970
     17 C          63.3523   89.9425   11.8713 C.3     1  UNL1        0.0391
     18 C          63.8774   90.8103   12.9765 C.3     1  UNL1        0.0739
     19 C          63.8563   91.0985   15.5585 C.3     1  UNL1        0.0897
     20 N          64.0756   90.2386   14.3491 N.3     1  UNL1       -0.2703
     21 C          64.4932   88.8072   14.5123 C.3     1  UNL1        0.0897
@<TRIPOS>BOND
     1    19    20    1
     2    20    21    1
     3    20    18    1
     4    18    17    1
     5    17    16    1
     6    16     1    1
     7     1     2    1
     8     2     3   ar
     9     3     4   ar
    10     4     5   ar
    11     5     6   ar
    12     6     7   ar
    13     7     8    1
    14     8     9    1
    15     9    10   ar
    16    10    11   ar
    17    11    12   ar
    18    12    13    1
    19    12    14   ar
    20    14    15   ar
    21    15     1    1
    22     7     2   ar
    23    15     9   ar
