@<TRIPOS>MOLECULE
*****
 20 22 0 0 0
SMALL
GASTEIGER

@<TRIPOS>ATOM
      1 N          58.9737   87.9922    7.1796 N.pl3   1  UNL1       -0.3599
      2 C          59.9084   87.9189    8.3505 C.2     1  UNL1        0.0247
      3 C          60.4939   86.6005    8.7615 C.2     1  UNL1        0.0116
      4 C          61.4286   86.5272    9.9323 C.2     1  UNL1        0.0213
      5 C          61.7779   87.7724   10.6922 C.2     1  UNL1        0.0974
      6 N          62.6638   88.0085   11.8794 N.2     1  UNL1       -0.2200
      7 C          62.6259   89.4729   12.2022 C.2     1  UNL1        0.1901
      8 N          61.7165   90.1419   11.2145 N.2     1  UNL1       -0.2237
      9 C          61.1924   89.0908   10.2813 C.2     1  UNL1        0.0844
     10 C          60.2577   89.1641    9.1104 C.3     1  UNL1        0.0879
     11 H          58.7445   87.1749    6.6809 H       1  UNL1        0.1421
     12 H          58.5895   88.8575    6.9099 H       1  UNL1        0.1421
     13 S          63.3672   90.1496   13.3170 S.3     1  UNL1       -0.0692
     14 C          64.3930   89.3901   14.1050 C.3     1  UNL1        0.1107
     15 C          63.9582   88.3832   15.1282 C.ar    1  UNL1        0.0703
     16 C          63.2721   88.8369   16.3826 C.ar    1  UNL1        0.0156
     17 C          62.8373   87.8301   17.4058 C.ar    1  UNL1        0.0028
     18 C          63.0885   86.3694   17.1747 C.ar    1  UNL1        0.0207
     19 C          63.7746   85.9156   15.9204 C.ar    1  UNL1        0.0985
     20 N          64.2094   86.9226   14.8971 N.ar    1  UNL1       -0.2473
@<TRIPOS>BOND
     1     1     2    1
     2     2     3    2
     3     3     4    1
     4     4     5    2
     5     5     6    1
     6     6     7    2
     7     7    13    1
     8    13    14    1
     9    14    15    1
    10    15    16   ar
    11    16    17   ar
    12    17    18   ar
    13    18    19   ar
    14    19    20   ar
    15     7     8    1
    16     8     9    2
    17     9    10    1
    18    10     2    1
    19     9     5    1
    20    20    15   ar
    21     1    11    1
    22     1    12    1
@<TRIPOS>MOLECULE
*****
 20 22 0 0 0
SMALL
GASTEIGER

@<TRIPOS>ATOM
      1 N          67.1720   92.9912   13.2667 N.pl3   1  UNL1       -0.3599
      2 C          65.9705   92.0935   13.2453 C.2     1  UNL1        0.0247
      3 C          65.7190   91.1499   14.3838 C.2     1  UNL1        0.0116
      4 C          64.5175   90.2522   14.3625 C.2     1  UNL1        0.0213
      5 C          63.5675   90.2981   13.2026 C.2     1  UNL1        0.0974
      6 N          62.3084   89.5388   12.9058 N.2     1  UNL1       -0.2200
      7 C          61.7818   90.0131   11.5838 C.2     1  UNL1        0.1901
      8 N          62.7154   91.0655   11.0635 N.2     1  UNL1       -0.2237
      9 C          63.8190   91.2417   12.0641 C.2     1  UNL1        0.0844
     10 C          65.0205   92.1394   12.0854 C.3     1  UNL1        0.0879
     11 H          67.7955   92.9611   14.0279 H       1  UNL1        0.1421
     12 H          67.3371   93.6106   12.5194 H       1  UNL1        0.1421
     13 S          60.5395   89.5212   10.9018 S.3     1  UNL1       -0.0692
     14 C          60.1348   88.0823   11.0271 C.3     1  UNL1        0.1107
     15 C          61.0865   86.9972   10.6188 C.ar    1  UNL1        0.0703
     16 C          61.5330   86.8895    9.1908 C.ar    1  UNL1        0.0156
     17 C          62.4847   85.8044    8.7825 C.ar    1  UNL1        0.0028
     18 C          62.9899   84.8269    9.8021 C.ar    1  UNL1        0.0207
     19 C          62.5434   84.9347   11.2300 C.ar    1  UNL1        0.0985
     20 N          61.5916   86.0199   11.6384 N.ar    1  UNL1       -0.2473
@<TRIPOS>BOND
     1     1     2    1
     2     2     3    2
     3     3     4    1
     4     4     5    2
     5     5     6    1
     6     6     7    2
     7     7    13    1
     8    13    14    1
     9    14    15    1
    10    15    16   ar
    11    16    17   ar
    12    17    18   ar
    13    18    19   ar
    14    19    20   ar
    15     7     8    1
    16     8     9    2
    17     9    10    1
    18    10     2    1
    19     9     5    1
    20    20    15   ar
    21     1    11    1
    22     1    12    1
@<TRIPOS>MOLECULE
*****
 20 22 0 0 0
SMALL
GASTEIGER

@<TRIPOS>ATOM
      1 N          64.6352   82.2463   12.6592 N.pl3   1  UNL1       -0.3599
      2 C          63.9613   83.2155   11.7338 C.2     1  UNL1        0.0247
      3 C          64.2241   83.1503   10.2585 C.2     1  UNL1        0.0116
      4 C          63.5501   84.1195    9.3330 C.2     1  UNL1        0.0213
      5 C          62.6133   85.1538    9.8829 C.2     1  UNL1        0.0974
      6 N          61.8101   86.2338    9.2208 N.2     1  UNL1       -0.2200
      7 C          61.0507   86.9665   10.2869 C.2     1  UNL1        0.1901
      8 N          61.3847   86.3394   11.6079 N.2     1  UNL1       -0.2237
      9 C          62.3505   85.2190   11.3582 C.2     1  UNL1        0.0844
     10 C          63.0244   84.2499   12.2836 C.3     1  UNL1        0.0879
     11 H          65.2501   81.5674   12.2983 H       1  UNL1        0.1421
     12 H          64.4627   82.2891   13.6275 H       1  UNL1        0.1421
     13 S          60.1207   88.1233   10.0700 S.3     1  UNL1       -0.0692
     14 C          60.1543   89.2977   11.0026 C.3     1  UNL1        0.1107
     15 C          61.4671   89.9144   11.3850 C.ar    1  UNL1        0.0703
     16 C          62.2531   90.6932   10.3722 C.ar    1  UNL1        0.0156
     17 C          63.5659   91.3099   10.7546 C.ar    1  UNL1        0.0028
     18 C          64.0926   91.1480   12.1497 C.ar    1  UNL1        0.0207
     19 C          63.3066   90.3693   13.1625 C.ar    1  UNL1        0.0985
     20 N          61.9937   89.7525   12.7801 N.ar    1  UNL1       -0.2473
@<TRIPOS>BOND
     1     1     2    1
     2     2     3    2
     3     3     4    1
     4     4     5    2
     5     5     6    1
     6     6     7    2
     7     7    13    1
     8    13    14    1
     9    14    15    1
    10    15    16   ar
    11    16    17   ar
    12    17    18   ar
    13    18    19   ar
    14    19    20   ar
    15     7     8    1
    16     8     9    2
    17     9    10    1
    18    10     2    1
    19     9     5    1
    20    20    15   ar
    21     1    11    1
    22     1    12    1
@<TRIPOS>MOLECULE
*****
 20 22 0 0 0
SMALL
GASTEIGER

@<TRIPOS>ATOM
      1 N          67.2593   92.9481   12.8063 N.pl3   1  UNL1       -0.3599
      2 C          66.0249   92.1059   12.9366 C.2     1  UNL1        0.0247
      3 C          65.7632   91.3500   14.2054 C.2     1  UNL1        0.0116
      4 C          64.5288   90.5078   14.3357 C.2     1  UNL1        0.0213
      5 C          63.5562   90.4215   13.1971 C.2     1  UNL1        0.0974
      6 N          62.2634   89.6781   13.0355 N.2     1  UNL1       -0.2200
      7 C          61.7261   89.9745   11.6667 C.2     1  UNL1        0.1901
      8 N          62.6868   90.9012   10.9824 N.2     1  UNL1       -0.2237
      9 C          63.8179   91.1774   11.9283 C.2     1  UNL1        0.0844
     10 C          65.0523   92.0196   11.7980 C.3     1  UNL1        0.0879
     11 H          67.8977   93.0048   13.5536 H       1  UNL1        0.1421
     12 H          67.4311   93.4443   11.9735 H       1  UNL1        0.1421
     13 S          60.4519   89.4384   11.0846 S.3     1  UNL1       -0.0692
     14 C          60.2007   87.9597   11.0636 C.3     1  UNL1        0.1107
     15 C          60.6282   87.1431    9.8803 C.ar    1  UNL1        0.0703
     16 C          62.0250   86.6011    9.8083 C.ar    1  UNL1        0.0156
     17 C          62.4525   85.7845    8.6250 C.ar    1  UNL1        0.0028
     18 C          61.4832   85.5098    7.5136 C.ar    1  UNL1        0.0207
     19 C          60.0864   86.0517    7.5856 C.ar    1  UNL1        0.0985
     20 N          59.6589   86.8684    8.7690 N.ar    1  UNL1       -0.2473
@<TRIPOS>BOND
     1     1     2    1
     2     2     3    2
     3     3     4    1
     4     4     5    2
     5     5     6    1
     6     6     7    2
     7     7    13    1
     8    13    14    1
     9    14    15    1
    10    15    16   ar
    11    16    17   ar
    12    17    18   ar
    13    18    19   ar
    14    19    20   ar
    15     7     8    1
    16     8     9    2
    17     9    10    1
    18    10     2    1
    19     9     5    1
    20    20    15   ar
    21     1    11    1
    22     1    12    1
@<TRIPOS>MOLECULE
*****
 20 22 0 0 0
SMALL
GASTEIGER

@<TRIPOS>ATOM
      1 N          63.7157   81.1144   14.1386 N.pl3   1  UNL1       -0.3599
      2 C          63.6111   82.5726   13.8027 C.2     1  UNL1        0.0247
      3 C          62.9800   83.0014   12.5113 C.2     1  UNL1        0.0116
      4 C          62.8754   84.4595   12.1754 C.2     1  UNL1        0.0213
      5 C          63.4019   85.4889   13.1310 C.2     1  UNL1        0.0974
      6 N          63.4385   86.9873   13.0722 N.2     1  UNL1       -0.2200
      7 C          64.0923   87.4846   14.3273 C.2     1  UNL1        0.1901
      8 N          64.4597   86.2936   15.1618 N.2     1  UNL1       -0.2237
      9 C          64.0330   85.0602   14.4224 C.2     1  UNL1        0.0844
     10 C          64.1376   83.6020   14.7583 C.3     1  UNL1        0.0879
     11 H          63.3701   80.4388   13.5114 H       1  UNL1        0.1421
     12 H          64.1299   80.8330   14.9862 H       1  UNL1        0.1421
     13 S          64.3358   88.9209   14.6851 S.3     1  UNL1       -0.0692
     14 C          63.4471   89.9935   14.1287 C.3     1  UNL1        0.1107
     15 C          63.9320   90.8616   13.0056 C.ar    1  UNL1        0.0703
     16 C          63.3577   90.6981   11.6296 C.ar    1  UNL1        0.0156
     17 C          63.8426   91.5662   10.5065 C.ar    1  UNL1        0.0028
     18 C          64.9019   92.5977   10.7595 C.ar    1  UNL1        0.0207
     19 C          65.4762   92.7612   12.1355 C.ar    1  UNL1        0.0985
     20 N          64.9912   91.8930   13.2586 N.ar    1  UNL1       -0.2473
@<TRIPOS>BOND
     1     1     2    1
     2     2     3    2
     3     3     4    1
     4     4     5    2
     5     5     6    1
     6     6     7    2
     7     7    13    1
     8    13    14    1
     9    14    15    1
    10    15    16   ar
    11    16    17   ar
    12    17    18   ar
    13    18    19   ar
    14    19    20   ar
    15     7     8    1
    16     8     9    2
    17     9    10    1
    18    10     2    1
    19     9     5    1
    20    20    15   ar
    21     1    11    1
    22     1    12    1
@<TRIPOS>MOLECULE
*****
 20 22 0 0 0
SMALL
GASTEIGER

@<TRIPOS>ATOM
      1 N          58.8831   87.9486    7.2468 N.pl3   1  UNL1       -0.3599
      2 C          59.8441   87.9292    8.3984 C.2     1  UNL1        0.0247
      3 C          60.4306   89.2124    8.9075 C.2     1  UNL1        0.0116
      4 C          61.3916   89.1930   10.0590 C.2     1  UNL1        0.0213
      5 C          61.7660   87.8904   10.7015 C.2     1  UNL1        0.0974
      6 N          62.6805   87.5609   11.8439 N.2     1  UNL1       -0.2200
      7 C          62.6592   86.0741   12.0409 C.2     1  UNL1        0.1901
      8 N          61.7315   85.4845   11.0202 N.2     1  UNL1       -0.2237
      9 C          61.1795   86.6071   10.1924 C.2     1  UNL1        0.0844
     10 C          60.2185   86.6265    9.0408 C.3     1  UNL1        0.0879
     11 H          58.6373   88.8036    6.8251 H       1  UNL1        0.1421
     12 H          58.4981   87.1063    6.9126 H       1  UNL1        0.1421
     13 S          63.4303   85.3107   13.0768 S.3     1  UNL1       -0.0692
     14 C          62.7278   84.3163   13.9529 C.3     1  UNL1        0.1107
     15 C          62.6298   82.8808   13.5291 C.ar    1  UNL1        0.0703
     16 C          61.9017   81.8923   14.3909 C.ar    1  UNL1        0.0156
     17 C          61.8038   80.4568   13.9671 C.ar    1  UNL1        0.0028
     18 C          62.4340   80.0097   12.6814 C.ar    1  UNL1        0.0207
     19 C          63.1621   80.9982   11.8195 C.ar    1  UNL1        0.0985
     20 N          63.2600   82.4338   12.2434 N.ar    1  UNL1       -0.2473
@<TRIPOS>BOND
     1     1     2    1
     2     2     3    2
     3     3     4    1
     4     4     5    2
     5     5     6    1
     6     6     7    2
     7     7    13    1
     8    13    14    1
     9    14    15    1
    10    15    16   ar
    11    16    17   ar
    12    17    18   ar
    13    18    19   ar
    14    19    20   ar
    15     7     8    1
    16     8     9    2
    17     9    10    1
    18    10     2    1
    19     9     5    1
    20    20    15   ar
    21     1    11    1
    22     1    12    1
@<TRIPOS>MOLECULE
*****
 20 22 0 0 0
SMALL
GASTEIGER

@<TRIPOS>ATOM
      1 N          63.4300   80.7614   14.1729 N.pl3   1  UNL1       -0.3599
      2 C          63.3863   82.2286   13.8638 C.2     1  UNL1        0.0247
      3 C          64.0131   83.2127   14.8064 C.2     1  UNL1        0.0116
      4 C          63.9693   84.6798   14.4973 C.2     1  UNL1        0.0213
      5 C          63.2987   85.1629   13.2456 C.2     1  UNL1        0.0974
      6 N          63.1001   86.5378   12.6798 N.2     1  UNL1       -0.2200
      7 C          62.3506   86.4035   11.3875 C.2     1  UNL1        0.1901
      8 N          62.0859   84.9456   11.1545 N.2     1  UNL1       -0.2237
      9 C          62.6719   84.1788   12.3030 C.2     1  UNL1        0.0844
     10 C          62.7156   82.7117   12.6120 C.3     1  UNL1        0.0879
     11 H          63.8702   80.4444   14.9945 H       1  UNL1        0.1421
     12 H          63.0186   80.1155   13.5542 H       1  UNL1        0.1421
     13 S          61.9381   87.5295   10.4863 S.3     1  UNL1       -0.0692
     14 C          61.5367   88.8506   11.0724 C.3     1  UNL1        0.1107
     15 C          62.5832   89.8718   11.4069 C.ar    1  UNL1        0.0703
     16 C          63.0853   90.8064   10.3464 C.ar    1  UNL1        0.0156
     17 C          64.1318   91.8275   10.6809 C.ar    1  UNL1        0.0028
     18 C          64.6764   91.9141   12.0759 C.ar    1  UNL1        0.0207
     19 C          64.1744   90.9796   13.1364 C.ar    1  UNL1        0.0985
     20 N          63.1278   89.9584   12.8018 N.ar    1  UNL1       -0.2473
@<TRIPOS>BOND
     1     1     2    1
     2     2     3    2
     3     3     4    1
     4     4     5    2
     5     5     6    1
     6     6     7    2
     7     7    13    1
     8    13    14    1
     9    14    15    1
    10    15    16   ar
    11    16    17   ar
    12    17    18   ar
    13    18    19   ar
    14    19    20   ar
    15     7     8    1
    16     8     9    2
    17     9    10    1
    18    10     2    1
    19     9     5    1
    20    20    15   ar
    21     1    11    1
    22     1    12    1
@<TRIPOS>MOLECULE
*****
 20 22 0 0 0
SMALL
GASTEIGER

@<TRIPOS>ATOM
      1 N          64.4513   83.2191   15.3187 N.pl3   1  UNL1       -0.3599
      2 C          64.1330   84.4805   14.5720 C.2     1  UNL1        0.0247
      3 C          63.4368   84.4113   13.2452 C.2     1  UNL1        0.0116
      4 C          63.1185   85.6727   12.4985 C.2     1  UNL1        0.0213
      5 C          63.4964   87.0033   13.0786 C.2     1  UNL1        0.0974
      6 N          63.3140   88.4052   12.5772 N.2     1  UNL1       -0.2200
      7 C          63.8975   89.3408   13.5941 C.2     1  UNL1        0.1901
      8 N          64.4405   88.5172   14.7241 N.2     1  UNL1       -0.2237
      9 C          64.1926   87.0725   14.4054 C.2     1  UNL1        0.0844
     10 C          64.5109   85.8111   15.1521 C.3     1  UNL1        0.0879
     11 H          64.2032   82.3457   14.9379 H       1  UNL1        0.1421
     12 H          64.9082   83.2645   16.1895 H       1  UNL1        0.1421
     13 S          63.9319   90.8374   13.4979 S.3     1  UNL1       -0.0692
     14 C          65.1585   91.5276   12.9791 C.3     1  UNL1        0.1107
     15 C          66.2357   91.9581   13.9300 C.ar    1  UNL1        0.0703
     16 C          65.8941   92.2783   15.3551 C.ar    1  UNL1        0.0156
     17 C          66.9713   92.7087   16.3060 C.ar    1  UNL1        0.0028
     18 C          68.3902   92.8190   15.8319 C.ar    1  UNL1        0.0207
     19 C          68.7318   92.4988   14.4068 C.ar    1  UNL1        0.0985
     20 N          67.6545   92.0683   13.4559 N.ar    1  UNL1       -0.2473
@<TRIPOS>BOND
     1     1     2    1
     2     2     3    2
     3     3     4    1
     4     4     5    2
     5     5     6    1
     6     6     7    2
     7     7    13    1
     8    13    14    1
     9    14    15    1
    10    15    16   ar
    11    16    17   ar
    12    17    18   ar
    13    18    19   ar
    14    19    20   ar
    15     7     8    1
    16     8     9    2
    17     9    10    1
    18    10     2    1
    19     9     5    1
    20    20    15   ar
    21     1    11    1
    22     1    12    1
@<TRIPOS>MOLECULE
*****
 20 22 0 0 0
SMALL
GASTEIGER

@<TRIPOS>ATOM
      1 N          68.0617   93.7456   15.0784 N.pl3   1  UNL1       -0.3599
      2 C          66.9231   92.9330   14.5369 C.2     1  UNL1        0.0247
      3 C          66.1850   91.9847   15.4345 C.2     1  UNL1        0.0116
      4 C          65.0464   91.1720   14.8930 C.2     1  UNL1        0.0213
      5 C          64.6458   91.3078   13.4539 C.2     1  UNL1        0.0974
      6 N          63.5727   90.6431   12.6437 N.2     1  UNL1       -0.2200
      7 C          63.6475   91.1806   11.2453 C.2     1  UNL1        0.1901
      8 N          64.7669   92.1776   11.1912 N.2     1  UNL1       -0.2237
      9 C          65.3839   92.2561   12.5563 C.2     1  UNL1        0.0844
     10 C          66.5226   93.0688   13.0977 C.3     1  UNL1        0.0879
     11 H          68.3246   93.6565   16.0229 H       1  UNL1        0.1421
     12 H          68.5461   94.3681   14.4892 H       1  UNL1        0.1421
     13 S          62.7588   90.7898   10.1018 S.3     1  UNL1       -0.0692
     14 C          61.4778   90.0551   10.3646 C.3     1  UNL1        0.1107
     15 C          61.1686   88.7942    9.6132 C.ar    1  UNL1        0.0703
     16 C          59.9654   88.7295    8.7197 C.ar    1  UNL1        0.0156
     17 C          59.6562   87.4687    7.9683 C.ar    1  UNL1        0.0028
     18 C          60.5502   86.2725    8.1103 C.ar    1  UNL1        0.0207
     19 C          61.7533   86.3373    9.0038 C.ar    1  UNL1        0.0985
     20 N          62.0625   87.5982    9.7552 N.ar    1  UNL1       -0.2473
@<TRIPOS>BOND
     1     1     2    1
     2     2     3    2
     3     3     4    1
     4     4     5    2
     5     5     6    1
     6     6     7    2
     7     7    13    1
     8    13    14    1
     9    14    15    1
    10    15    16   ar
    11    16    17   ar
    12    17    18   ar
    13    18    19   ar
    14    19    20   ar
    15     7     8    1
    16     8     9    2
    17     9    10    1
    18    10     2    1
    19     9     5    1
    20    20    15   ar
    21     1    11    1
    22     1    12    1
