@<TRIPOS>MOLECULE
*****
 34 37 0 0 0
SMALL
GASTEIGER

@<TRIPOS>ATOM
      1 C          62.3827   85.5804   11.2744 C.3     1  UNL1        0.1351
      2 C          62.4142   86.9350   11.9180 C.3     1  UNL1        0.0642
      3 C          61.7412   88.0979   11.2513 C.3     1  UNL1        0.1020
      4 C          61.0368   87.9064    9.9409 C.ar    1  UNL1        0.0319
      5 C          60.3638   89.0693    9.2741 C.ar    1  UNL1        0.0005
      6 C          59.6594   88.8777    7.9638 C.ar    1  UNL1        0.0022
      7 C          59.6279   87.5232    7.3202 C.ar    1  UNL1        0.0328
      8 C          60.3009   86.3602    7.9869 C.ar    1  UNL1        0.1735
      9 F          60.2695   85.0057    7.3433 F       1  UNL1       -0.2010
     10 C          61.0053   86.5518    9.2973 C.ar    1  UNL1        0.1629
     11 O          61.6783   85.3888    9.9641 O.3     1  UNL1       -0.4805
     12 N          61.7727   89.4525   11.8949 N.am    1  UNL1       -0.2863
     13 C          62.8962   89.8178   12.8191 C.2     1  UNL1        0.3047
     14 O          63.9883   88.8285   13.0998 O.2     1  UNL1       -0.2525
     15 N          62.9276   91.1723   13.4627 N.am    1  UNL1       -0.2683
     16 H          61.0559   90.1017   11.7107 H       1  UNL1        0.1512
     17 H          62.2109   91.8216   13.2785 H       1  UNL1        0.1564
     18 C          64.0512   91.5376   14.3870 C.ar    1  UNL1        0.0516
     19 C          63.8400   91.5104   15.8717 C.ar    1  UNL1        0.0147
     20 C          64.9635   91.8757   16.7959 C.ar    1  UNL1        0.0013
     21 C          66.2983   92.2682   16.2353 C.ar    1  UNL1        0.0016
     22 C          66.5096   92.2954   14.7506 C.ar    1  UNL1        0.0204
     23 C          67.8444   92.6878   14.1900 C.ar    1  UNL1        0.0984
     24 N          68.0556   92.7150   12.7052 N.ar    1  UNL1       -0.2481
     25 C          66.9320   92.3497   11.7809 C.ar    1  UNL1        0.0594
     26 C          67.1433   92.3769   10.2962 C.3     1  UNL1        0.0521
     27 C          65.5972   91.9573   12.3415 C.ar    1  UNL1        0.0160
     28 C          65.3860   91.9301   13.8264 C.ar    1  UNL1        0.0162
     29 C          62.6252   84.1158   11.0601 C.3     1  UNL1        0.0401
     30 C          64.5691   82.5892   10.2594 C.3     1  UNL1        0.0001
     31 C          63.5579   83.6606    9.9770 C.3     1  UNL1        0.0036
     32 C          63.1714   85.2633   12.5104 C.3     1  UNL1        0.0401
     33 C          62.7526   84.1277   13.3964 C.3     1  UNL1        0.0036
     34 C          62.6606   84.3286   14.8801 C.3     1  UNL1        0.0001
@<TRIPOS>BOND
     1    30    31    1
     2    31    29    1
     3    29     1    1
     4     1    32    1
     5    32    33    1
     6    33    34    1
     7     1     2    1
     8     2     3    1
     9     3    12    1
    10    12    13   am
    11    13    14    2
    12    13    15   am
    13    15    18    1
    14    18    19   ar
    15    19    20   ar
    16    20    21   ar
    17    21    22   ar
    18    22    23   ar
    19    23    24   ar
    20    24    25   ar
    21    25    26    1
    22    25    27   ar
    23    27    28   ar
    24     3     4    1
    25     4     5   ar
    26     5     6   ar
    27     6     7   ar
    28     7     8   ar
    29     8     9    1
    30     8    10   ar
    31    10    11    1
    32    11     1    1
    33    28    18   ar
    34    10     4   ar
    35    28    22   ar
    36    12    16    1
    37    15    17    1
@<TRIPOS>MOLECULE
*****
 34 37 0 0 0
SMALL
GASTEIGER

@<TRIPOS>ATOM
      1 C          64.0416   90.9729   15.3317 C.3     1  UNL1        0.1351
      2 C          63.2401   89.9426   14.5927 C.3     1  UNL1        0.0642
      3 C          63.1860   89.9677   13.0939 C.3     1  UNL1        0.1020
      4 C          63.9335   91.0232   12.3341 C.ar    1  UNL1        0.0319
      5 C          63.8794   91.0484   10.8353 C.ar    1  UNL1        0.0005
      6 C          64.6268   92.1038   10.0755 C.ar    1  UNL1        0.0022
      7 C          65.4283   93.1341   10.8145 C.ar    1  UNL1        0.0328
      8 C          65.4824   93.1090   12.3132 C.ar    1  UNL1        0.1735
      9 F          66.2839   94.1393   13.0522 F       1  UNL1       -0.2010
     10 C          64.7350   92.0535   13.0730 C.ar    1  UNL1        0.1629
     11 O          64.7890   92.0283   14.5719 O.3     1  UNL1       -0.4805
     12 N          62.3845   88.9374   12.3550 N.am    1  UNL1       -0.2863
     13 C          62.9151   87.5429   12.2014 C.2     1  UNL1        0.3047
     14 O          64.2473   87.1785   12.7869 O.2     1  UNL1       -0.2525
     15 N          62.1136   86.5126   11.4625 N.am    1  UNL1       -0.2683
     16 H          61.5102   89.1765   11.9707 H       1  UNL1        0.1512
     17 H          61.2393   86.7517   11.0782 H       1  UNL1        0.1564
     18 C          62.6443   85.1179   11.3090 C.ar    1  UNL1        0.0516
     19 C          62.9749   84.5871    9.9456 C.ar    1  UNL1        0.0147
     20 C          63.5055   83.1925    9.7921 C.ar    1  UNL1        0.0013
     21 C          63.7055   82.3288   11.0021 C.ar    1  UNL1        0.0016
     22 C          63.3749   82.8596   12.3655 C.ar    1  UNL1        0.0204
     23 C          63.5749   81.9959   13.5754 C.ar    1  UNL1        0.0984
     24 N          63.2443   82.5267   14.9388 N.ar    1  UNL1       -0.2481
     25 C          62.7136   83.9214   15.0923 C.ar    1  UNL1        0.0594
     26 C          62.3830   84.4522   16.4557 C.3     1  UNL1        0.0521
     27 C          62.5136   84.7851   13.8823 C.ar    1  UNL1        0.0160
     28 C          62.8443   84.2542   12.5189 C.ar    1  UNL1        0.0162
     29 C          64.6579   91.7276   16.4721 C.3     1  UNL1        0.0401
     30 C          67.1782   92.3577   16.4348 C.3     1  UNL1        0.0001
     31 C          65.7427   92.7298   16.2091 C.3     1  UNL1        0.0036
     32 C          63.5082   90.1795   16.4876 C.3     1  UNL1        0.0401
     33 C          63.1953   88.7225   16.3164 C.3     1  UNL1        0.0036
     34 C          62.8565   87.8826   17.5122 C.3     1  UNL1        0.0001
@<TRIPOS>BOND
     1    30    31    1
     2    31    29    1
     3    29     1    1
     4     1    32    1
     5    32    33    1
     6    33    34    1
     7     1     2    1
     8     2     3    1
     9     3    12    1
    10    12    13   am
    11    13    14    2
    12    13    15   am
    13    15    18    1
    14    18    19   ar
    15    19    20   ar
    16    20    21   ar
    17    21    22   ar
    18    22    23   ar
    19    23    24   ar
    20    24    25   ar
    21    25    26    1
    22    25    27   ar
    23    27    28   ar
    24     3     4    1
    25     4     5   ar
    26     5     6   ar
    27     6     7   ar
    28     7     8   ar
    29     8     9    1
    30     8    10   ar
    31    10    11    1
    32    11     1    1
    33    28    18   ar
    34    10     4   ar
    35    28    22   ar
    36    12    16    1
    37    15    17    1
@<TRIPOS>MOLECULE
*****
 34 37 0 0 0
SMALL
GASTEIGER

@<TRIPOS>ATOM
      1 C          63.5201   83.9081   13.8022 C.3     1  UNL1        0.1351
      2 C          63.2458   85.3828   13.8126 C.3     1  UNL1        0.0642
      3 C          63.0181   86.1125   12.5220 C.3     1  UNL1        0.1020
      4 C          63.0647   85.3675   11.2209 C.ar    1  UNL1        0.0319
      5 C          62.8370   86.0972    9.9303 C.ar    1  UNL1        0.0005
      6 C          62.8836   85.3522    8.6292 C.ar    1  UNL1        0.0022
      7 C          63.1579   83.8775    8.6188 C.ar    1  UNL1        0.0328
      8 C          63.3856   83.1478    9.9094 C.ar    1  UNL1        0.1735
      9 F          63.6599   81.6731    9.8989 F       1  UNL1       -0.2010
     10 C          63.3390   83.8928   11.2104 C.ar    1  UNL1        0.1629
     11 O          63.5667   83.1631   12.5011 O.3     1  UNL1       -0.4805
     12 N          62.7439   87.5871   12.5325 N.am    1  UNL1       -0.2863
     13 C          63.5271   88.4893   13.4394 C.2     1  UNL1        0.3047
     14 O          64.5847   87.9168   14.3360 O.2     1  UNL1       -0.2525
     15 N          63.2528   89.9639   13.4499 N.am    1  UNL1       -0.2683
     16 H          62.0497   87.9629   11.9440 H       1  UNL1        0.1512
     17 H          62.5587   90.3397   12.8615 H       1  UNL1        0.1564
     18 C          64.0361   90.8661   14.3569 C.ar    1  UNL1        0.0516
     19 C          63.8134   90.8160   15.8394 C.ar    1  UNL1        0.0147
     20 C          64.5967   91.7181   16.7463 C.ar    1  UNL1        0.0013
     21 C          65.6027   92.6703   16.1708 C.ar    1  UNL1        0.0016
     22 C          65.8255   92.7204   14.6883 C.ar    1  UNL1        0.0204
     23 C          66.8315   93.6726   14.1127 C.ar    1  UNL1        0.0984
     24 N          67.0542   93.7227   12.6302 N.ar    1  UNL1       -0.2481
     25 C          66.2709   92.8205   11.7232 C.ar    1  UNL1        0.0594
     26 C          66.4936   92.8706   10.2407 C.3     1  UNL1        0.0521
     27 C          65.2648   91.8683   12.2988 C.ar    1  UNL1        0.0160
     28 C          65.0422   91.8183   13.7813 C.ar    1  UNL1        0.0162
     29 C          63.8136   82.5254   14.3041 C.3     1  UNL1        0.0401
     30 C          61.6509   81.0951   14.1383 C.3     1  UNL1        0.0001
     31 C          63.0741   81.3494   13.7382 C.3     1  UNL1        0.0036
     32 C          63.5755   84.1729   15.2776 C.3     1  UNL1        0.0401
     33 C          62.4044   84.8039   15.9707 C.3     1  UNL1        0.0036
     34 C          62.6306   85.7908   17.0775 C.3     1  UNL1        0.0001
@<TRIPOS>BOND
     1    30    31    1
     2    31    29    1
     3    29     1    1
     4     1    32    1
     5    32    33    1
     6    33    34    1
     7     1     2    1
     8     2     3    1
     9     3    12    1
    10    12    13   am
    11    13    14    2
    12    13    15   am
    13    15    18    1
    14    18    19   ar
    15    19    20   ar
    16    20    21   ar
    17    21    22   ar
    18    22    23   ar
    19    23    24   ar
    20    24    25   ar
    21    25    26    1
    22    25    27   ar
    23    27    28   ar
    24     3     4    1
    25     4     5   ar
    26     5     6   ar
    27     6     7   ar
    28     7     8   ar
    29     8     9    1
    30     8    10   ar
    31    10    11    1
    32    11     1    1
    33    28    18   ar
    34    10     4   ar
    35    28    22   ar
    36    12    16    1
    37    15    17    1
@<TRIPOS>MOLECULE
*****
 34 37 0 0 0
SMALL
GASTEIGER

@<TRIPOS>ATOM
      1 C          63.5099   83.6227   10.5826 C.3     1  UNL1        0.1351
      2 C          63.2304   85.0950   10.6468 C.3     1  UNL1        0.0642
      3 C          62.8373   85.7278   11.9488 C.3     1  UNL1        0.1020
      4 C          62.7238   84.8882   13.1866 C.ar    1  UNL1        0.0319
      5 C          62.3307   85.5209   14.4886 C.ar    1  UNL1        0.0005
      6 C          62.2172   84.6813   15.7263 C.ar    1  UNL1        0.0022
      7 C          62.4967   83.2090   15.6622 C.ar    1  UNL1        0.0328
      8 C          62.8898   82.5762   14.3602 C.ar    1  UNL1        0.1735
      9 F          63.1694   81.1039   14.2961 F       1  UNL1       -0.2010
     10 C          63.0033   83.4158   13.1225 C.ar    1  UNL1        0.1629
     11 O          63.3964   82.7831   11.8204 O.3     1  UNL1       -0.4805
     12 N          62.5578   87.2001   12.0129 N.am    1  UNL1       -0.2863
     13 C          63.2761   88.0570   13.0127 C.2     1  UNL1        0.3047
     14 O          64.2741   87.4416   13.9484 O.2     1  UNL1       -0.2525
     15 N          62.9966   89.5293   13.0769 N.am    1  UNL1       -0.2683
     16 H          61.9028   87.6040   11.3988 H       1  UNL1        0.1512
     17 H          62.3416   89.9332   12.4628 H       1  UNL1        0.1564
     18 C          63.7150   90.3863   14.0767 C.ar    1  UNL1        0.0516
     19 C          63.4393   90.2208   15.5418 C.ar    1  UNL1        0.0147
     20 C          64.1577   91.0777   16.5416 C.ar    1  UNL1        0.0013
     21 C          65.1518   92.1000   16.0763 C.ar    1  UNL1        0.0016
     22 C          65.4276   92.2655   14.6112 C.ar    1  UNL1        0.0204
     23 C          66.4217   93.2878   14.1458 C.ar    1  UNL1        0.0984
     24 N          66.6975   93.4532   12.6807 N.ar    1  UNL1       -0.2481
     25 C          65.9791   92.5963   11.6809 C.ar    1  UNL1        0.0594
     26 C          66.2548   92.7617   10.2158 C.3     1  UNL1        0.0521
     27 C          64.9849   91.5740   12.1462 C.ar    1  UNL1        0.0160
     28 C          64.7092   91.4086   13.6114 C.ar    1  UNL1        0.0162
     29 C          63.8727   82.2801   10.0209 C.3     1  UNL1        0.0401
     30 C          62.9576   79.8619    9.7650 C.3     1  UNL1        0.0001
     31 C          63.3082   81.0330   10.6343 C.3     1  UNL1        0.0036
     32 C          63.7494   83.9960    9.1497 C.3     1  UNL1        0.0401
     33 C          62.9129   85.0593    8.5018 C.3     1  UNL1        0.0036
     34 C          62.4625   84.8968    7.0803 C.3     1  UNL1        0.0001
@<TRIPOS>BOND
     1    30    31    1
     2    31    29    1
     3    29     1    1
     4     1    32    1
     5    32    33    1
     6    33    34    1
     7     1     2    1
     8     2     3    1
     9     3    12    1
    10    12    13   am
    11    13    14    2
    12    13    15   am
    13    15    18    1
    14    18    19   ar
    15    19    20   ar
    16    20    21   ar
    17    21    22   ar
    18    22    23   ar
    19    23    24   ar
    20    24    25   ar
    21    25    26    1
    22    25    27   ar
    23    27    28   ar
    24     3     4    1
    25     4     5   ar
    26     5     6   ar
    27     6     7   ar
    28     7     8   ar
    29     8     9    1
    30     8    10   ar
    31    10    11    1
    32    11     1    1
    33    28    18   ar
    34    10     4   ar
    35    28    22   ar
    36    12    16    1
    37    15    17    1
@<TRIPOS>MOLECULE
*****
 34 37 0 0 0
SMALL
GASTEIGER

@<TRIPOS>ATOM
      1 C          62.4042   85.6129    9.5312 C.3     1  UNL1        0.1351
      2 C          62.0691   86.9132   10.1997 C.3     1  UNL1        0.0642
      3 C          62.4211   87.1276   11.6420 C.3     1  UNL1        0.1020
      4 C          63.1083   86.0417   12.4158 C.ar    1  UNL1        0.0319
      5 C          63.4603   86.2562   13.8580 C.ar    1  UNL1        0.0005
      6 C          64.1474   85.1703   14.6317 C.ar    1  UNL1        0.0022
      7 C          64.4825   83.8700   13.9632 C.ar    1  UNL1        0.0328
      8 C          64.1305   83.6555   12.5210 C.ar    1  UNL1        0.1735
      9 F          64.4656   82.3552   11.8525 F       1  UNL1       -0.2010
     10 C          63.4434   84.7414   11.7473 C.ar    1  UNL1        0.1629
     11 O          63.0913   84.5270   10.3050 O.3     1  UNL1       -0.4805
     12 N          62.0860   88.4279   12.3105 N.am    1  UNL1       -0.2863
     13 C          63.1282   89.1493   13.1126 C.2     1  UNL1        0.3047
     14 O          64.5055   88.5704   13.2462 O.2     1  UNL1       -0.2525
     15 N          62.7930   90.4496   13.7811 N.am    1  UNL1       -0.2683
     16 H          61.1820   88.8079   12.2227 H       1  UNL1        0.1512
     17 H          61.8891   90.8296   13.6934 H       1  UNL1        0.1564
     18 C          63.8353   91.1710   14.5832 C.ar    1  UNL1        0.0516
     19 C          63.7856   91.1358   16.0820 C.ar    1  UNL1        0.0147
     20 C          64.8278   91.8572   16.8840 C.ar    1  UNL1        0.0013
     21 C          65.9198   92.6137   16.1874 C.ar    1  UNL1        0.0016
     22 C          65.9694   92.6490   14.6886 C.ar    1  UNL1        0.0204
     23 C          67.0613   93.4055   13.9920 C.ar    1  UNL1        0.0984
     24 N          67.1110   93.4408   12.4932 N.ar    1  UNL1       -0.2481
     25 C          66.0688   92.7194   11.6911 C.ar    1  UNL1        0.0594
     26 C          66.1184   92.7546   10.1924 C.3     1  UNL1        0.0521
     27 C          64.9769   91.9628   12.3878 C.ar    1  UNL1        0.0160
     28 C          64.9272   91.9276   13.8866 C.ar    1  UNL1        0.0162
     29 C          62.5139   84.5631    8.4655 C.3     1  UNL1        0.0401
     30 C          62.0774   84.2354    5.9253 C.3     1  UNL1        0.0001
     31 C          62.7659   84.9630    7.0419 C.3     1  UNL1        0.0036
     32 C          61.7551   86.3342    8.3874 C.3     1  UNL1        0.0401
     33 C          60.4459   87.0376    8.5903 C.3     1  UNL1        0.0036
     34 C          59.2753   86.7119    7.7107 C.3     1  UNL1        0.0001
@<TRIPOS>BOND
     1    30    31    1
     2    31    29    1
     3    29     1    1
     4     1    32    1
     5    32    33    1
     6    33    34    1
     7     1     2    1
     8     2     3    1
     9     3    12    1
    10    12    13   am
    11    13    14    2
    12    13    15   am
    13    15    18    1
    14    18    19   ar
    15    19    20   ar
    16    20    21   ar
    17    21    22   ar
    18    22    23   ar
    19    23    24   ar
    20    24    25   ar
    21    25    26    1
    22    25    27   ar
    23    27    28   ar
    24     3     4    1
    25     4     5   ar
    26     5     6   ar
    27     6     7   ar
    28     7     8   ar
    29     8     9    1
    30     8    10   ar
    31    10    11    1
    32    11     1    1
    33    28    18   ar
    34    10     4   ar
    35    28    22   ar
    36    12    16    1
    37    15    17    1
@<TRIPOS>MOLECULE
*****
 34 37 0 0 0
SMALL
GASTEIGER

@<TRIPOS>ATOM
      1 C          62.3901   83.8919   13.9661 C.3     1  UNL1        0.1351
      2 C          62.0355   85.2996   13.5885 C.3     1  UNL1        0.0642
      3 C          62.2008   85.7600   12.1705 C.3     1  UNL1        0.1020
      4 C          62.7208   84.8127   11.1301 C.ar    1  UNL1        0.0319
      5 C          62.8861   85.2731    9.7122 C.ar    1  UNL1        0.0005
      6 C          63.4060   84.3259    8.6719 C.ar    1  UNL1        0.0022
      7 C          63.7606   82.9181    9.0495 C.ar    1  UNL1        0.0328
      8 C          63.5953   82.4577   10.4675 C.ar    1  UNL1        0.1735
      9 F          63.9499   81.0500   10.8451 F       1  UNL1       -0.2010
     10 C          63.0754   83.4050   11.5078 C.ar    1  UNL1        0.1629
     11 O          62.9100   82.9446   12.9258 O.3     1  UNL1       -0.4805
     12 N          61.8463   87.1677   11.7929 N.am    1  UNL1       -0.2863
     13 C          62.8473   88.2691   11.9795 C.2     1  UNL1        0.3047
     14 O          64.2030   87.9628   12.5437 O.2     1  UNL1       -0.2525
     15 N          62.4927   89.6768   11.6018 N.am    1  UNL1       -0.2683
     16 H          60.9565   87.3688   11.4225 H       1  UNL1        0.1512
     17 H          61.6030   89.8779   11.2315 H       1  UNL1        0.1564
     18 C          63.4938   90.7782   11.7884 C.ar    1  UNL1        0.0516
     19 C          64.0151   91.5275   10.5982 C.ar    1  UNL1        0.0147
     20 C          65.0162   92.6289   10.7848 C.ar    1  UNL1        0.0013
     21 C          65.4960   92.9809   12.1617 C.ar    1  UNL1        0.0016
     22 C          64.9747   92.2316   13.3520 C.ar    1  UNL1        0.0204
     23 C          65.4545   92.5836   14.7289 C.ar    1  UNL1        0.0984
     24 N          64.9332   91.8343   15.9192 N.ar    1  UNL1       -0.2481
     25 C          63.9321   90.7329   15.7325 C.ar    1  UNL1        0.0594
     26 C          63.4108   89.9836   16.9228 C.3     1  UNL1        0.0521
     27 C          63.4523   90.3809   14.3556 C.ar    1  UNL1        0.0160
     28 C          63.9736   91.1302   13.1653 C.ar    1  UNL1        0.0162
     29 C          62.5880   82.6652   14.8064 C.3     1  UNL1        0.0401
     30 C          60.7920   80.8901   14.1950 C.3     1  UNL1        0.0001
     31 C          62.2290   81.3154   14.2592 C.3     1  UNL1        0.0036
     32 C          61.9389   84.4132   15.2983 C.3     1  UNL1        0.0401
     33 C          62.8875   85.1946   16.1583 C.3     1  UNL1        0.0036
     34 C          62.3632   86.0150   17.2993 C.3     1  UNL1        0.0001
@<TRIPOS>BOND
     1    30    31    1
     2    31    29    1
     3    29     1    1
     4     1    32    1
     5    32    33    1
     6    33    34    1
     7     1     2    1
     8     2     3    1
     9     3    12    1
    10    12    13   am
    11    13    14    2
    12    13    15   am
    13    15    18    1
    14    18    19   ar
    15    19    20   ar
    16    20    21   ar
    17    21    22   ar
    18    22    23   ar
    19    23    24   ar
    20    24    25   ar
    21    25    26    1
    22    25    27   ar
    23    27    28   ar
    24     3     4    1
    25     4     5   ar
    26     5     6   ar
    27     6     7   ar
    28     7     8   ar
    29     8     9    1
    30     8    10   ar
    31    10    11    1
    32    11     1    1
    33    28    18   ar
    34    10     4   ar
    35    28    22   ar
    36    12    16    1
    37    15    17    1
@<TRIPOS>MOLECULE
*****
 34 37 0 0 0
SMALL
GASTEIGER

@<TRIPOS>ATOM
      1 C          62.0268   88.7350   11.0478 C.3     1  UNL1        0.1351
      2 C          62.8407   89.8775   11.5791 C.3     1  UNL1        0.0642
      3 C          63.7803   89.6587   12.7277 C.3     1  UNL1        0.1020
      4 C          63.9059   88.2974   13.3451 C.ar    1  UNL1        0.0319
      5 C          64.8455   88.0786   14.4937 C.ar    1  UNL1        0.0005
      6 C          64.9711   86.7174   15.1110 C.ar    1  UNL1        0.0022
      7 C          64.1572   85.5749   14.5797 C.ar    1  UNL1        0.0328
      8 C          63.2176   85.7936   13.4311 C.ar    1  UNL1        0.1735
      9 F          62.4037   84.6511   12.8999 F       1  UNL1       -0.2010
     10 C          63.0920   87.1549   12.8138 C.ar    1  UNL1        0.1629
     11 O          62.1524   87.3737   11.6651 O.3     1  UNL1       -0.4805
     12 N          64.5942   90.8012   13.2589 N.am    1  UNL1       -0.2863
     13 C          64.9315   91.9598   12.3681 C.2     1  UNL1        0.3047
     14 O          64.4548   91.9761   10.9458 O.2     1  UNL1       -0.2525
     15 N          65.7454   93.1023   12.8993 N.am    1  UNL1       -0.2683
     16 H          64.9070   90.7906   14.1924 H       1  UNL1        0.1512
     17 H          66.0582   93.0917   13.8328 H       1  UNL1        0.1564
     18 C          66.0827   94.2610   12.0084 C.ar    1  UNL1        0.0516
     19 C          65.6605   95.6487   12.3905 C.ar    1  UNL1        0.0147
     20 C          65.9978   96.8073   11.4996 C.ar    1  UNL1        0.0013
     21 C          66.7573   96.5783   10.2265 C.ar    1  UNL1        0.0016
     22 C          67.1795   95.1906    9.8444 C.ar    1  UNL1        0.0204
     23 C          67.9389   94.9615    8.5713 C.ar    1  UNL1        0.0984
     24 N          68.3611   93.5739    8.1892 N.ar    1  UNL1       -0.2481
     25 C          68.0239   92.4152    9.0801 C.ar    1  UNL1        0.0594
     26 C          68.4461   91.0275    8.6980 C.3     1  UNL1        0.0521
     27 C          67.2644   92.6442   10.3532 C.ar    1  UNL1        0.0160
     28 C          66.8422   94.0320   10.7353 C.ar    1  UNL1        0.0162
     29 C          61.0517   87.9734   10.1999 C.3     1  UNL1        0.0401
     30 C          60.6818   86.3791    8.1819 C.3     1  UNL1        0.0001
     31 C          61.5340   86.8588    9.3194 C.3     1  UNL1        0.0036
     32 C          61.5625   89.8318   10.1359 C.3     1  UNL1        0.0401
     33 C          60.1126   90.2147   10.1011 C.3     1  UNL1        0.0036
     34 C          59.4532   90.7674   11.3298 C.3     1  UNL1        0.0001
@<TRIPOS>BOND
     1    30    31    1
     2    31    29    1
     3    29     1    1
     4     1    32    1
     5    32    33    1
     6    33    34    1
     7     1     2    1
     8     2     3    1
     9     3    12    1
    10    12    13   am
    11    13    14    2
    12    13    15   am
    13    15    18    1
    14    18    19   ar
    15    19    20   ar
    16    20    21   ar
    17    21    22   ar
    18    22    23   ar
    19    23    24   ar
    20    24    25   ar
    21    25    26    1
    22    25    27   ar
    23    27    28   ar
    24     3     4    1
    25     4     5   ar
    26     5     6   ar
    27     6     7   ar
    28     7     8   ar
    29     8     9    1
    30     8    10   ar
    31    10    11    1
    32    11     1    1
    33    28    18   ar
    34    10     4   ar
    35    28    22   ar
    36    12    16    1
    37    15    17    1
@<TRIPOS>MOLECULE
*****
 34 37 0 0 0
SMALL
GASTEIGER

@<TRIPOS>ATOM
      1 C          60.5940   89.0751    9.6489 C.3     1  UNL1        0.1351
      2 C          61.4835   89.0392   10.8562 C.3     1  UNL1        0.0642
      3 C          62.3824   87.8616   11.0908 C.3     1  UNL1        0.1020
      4 C          62.3918   86.7197   10.1181 C.ar    1  UNL1        0.0319
      5 C          63.2907   85.5420   10.3527 C.ar    1  UNL1        0.0005
      6 C          63.3002   84.4003    9.3799 C.ar    1  UNL1        0.0022
      7 C          62.4107   84.4362    8.1726 C.ar    1  UNL1        0.0328
      8 C          61.5118   85.6138    7.9380 C.ar    1  UNL1        0.1735
      9 F          60.6224   85.6497    6.7307 F       1  UNL1       -0.2010
     10 C          61.5024   86.7556    8.9108 C.ar    1  UNL1        0.1629
     11 O          60.6035   87.9333    8.6762 O.3     1  UNL1       -0.4805
     12 N          63.2718   87.8257   12.2981 N.am    1  UNL1       -0.2863
     13 C          63.4688   89.0638   13.1216 C.2     1  UNL1        0.3047
     14 O          62.7763   90.3379   12.7379 O.2     1  UNL1       -0.2525
     15 N          64.3583   89.0279   14.3290 N.am    1  UNL1       -0.2683
     16 H          63.7263   86.9895   12.5500 H       1  UNL1        0.1512
     17 H          64.8127   88.1917   14.5809 H       1  UNL1        0.1564
     18 C          64.5552   90.2661   15.1525 C.ar    1  UNL1        0.0516
     19 C          63.6313   90.5606   16.2968 C.ar    1  UNL1        0.0147
     20 C          63.8283   91.7987   17.1203 C.ar    1  UNL1        0.0013
     21 C          64.9492   92.7424   16.7994 C.ar    1  UNL1        0.0016
     22 C          65.8732   92.4479   15.6550 C.ar    1  UNL1        0.0204
     23 C          66.9941   93.3916   15.3341 C.ar    1  UNL1        0.0984
     24 N          67.9180   93.0972   14.1897 N.ar    1  UNL1       -0.2481
     25 C          67.7210   91.8590   13.3662 C.ar    1  UNL1        0.0594
     26 C          68.6449   91.5645   12.2218 C.3     1  UNL1        0.0521
     27 C          66.6001   90.9153   13.6871 C.ar    1  UNL1        0.0160
     28 C          65.6762   91.2098   14.8316 C.ar    1  UNL1        0.0162
     29 C          59.5789   89.5668    8.6602 C.3     1  UNL1        0.0401
     30 C          59.2274   89.8566    6.1023 C.3     1  UNL1        0.0001
     31 C          59.5295   88.9792    7.2809 C.3     1  UNL1        0.0036
     32 C          60.2321   90.3877   10.2783 C.3     1  UNL1        0.0401
     33 C          59.4270   90.4160   11.5437 C.3     1  UNL1        0.0036
     34 C          58.9523   89.1332   12.1594 C.3     1  UNL1        0.0001
@<TRIPOS>BOND
     1    30    31    1
     2    31    29    1
     3    29     1    1
     4     1    32    1
     5    32    33    1
     6    33    34    1
     7     1     2    1
     8     2     3    1
     9     3    12    1
    10    12    13   am
    11    13    14    2
    12    13    15   am
    13    15    18    1
    14    18    19   ar
    15    19    20   ar
    16    20    21   ar
    17    21    22   ar
    18    22    23   ar
    19    23    24   ar
    20    24    25   ar
    21    25    26    1
    22    25    27   ar
    23    27    28   ar
    24     3     4    1
    25     4     5   ar
    26     5     6   ar
    27     6     7   ar
    28     7     8   ar
    29     8     9    1
    30     8    10   ar
    31    10    11    1
    32    11     1    1
    33    28    18   ar
    34    10     4   ar
    35    28    22   ar
    36    12    16    1
    37    15    17    1
@<TRIPOS>MOLECULE
*****
 34 37 0 0 0
SMALL
GASTEIGER

@<TRIPOS>ATOM
      1 C          62.2306   85.2043   10.8936 C.3     1  UNL1        0.1351
      2 C          62.3600   86.5036   11.6318 C.3     1  UNL1        0.0642
      3 C          61.7016   87.7399   11.0952 C.3     1  UNL1        0.1020
      4 C          60.9138   87.6769    9.8202 C.ar    1  UNL1        0.0319
      5 C          60.2554   88.9132    9.2836 C.ar    1  UNL1        0.0005
      6 C          59.4675   88.8502    8.0087 C.ar    1  UNL1        0.0022
      7 C          59.3381   87.5508    7.2705 C.ar    1  UNL1        0.0328
      8 C          59.9965   86.3145    7.8072 C.ar    1  UNL1        0.1735
      9 F          59.8671   85.0152    7.0690 F       1  UNL1       -0.2010
     10 C          60.7843   86.3776    9.0820 C.ar    1  UNL1        0.1629
     11 O          61.4428   85.1412    9.6187 O.3     1  UNL1       -0.4805
     12 N          61.8311   89.0392   11.8334 N.am    1  UNL1       -0.2863
     13 C          63.0081   89.9331   11.5776 C.2     1  UNL1        0.3047
     14 O          64.0559   89.5276   10.5837 O.2     1  UNL1       -0.2525
     15 N          63.1376   91.2324   12.3159 N.am    1  UNL1       -0.2683
     16 H          61.1434   89.3054   12.4858 H       1  UNL1        0.1512
     17 H          62.4500   91.4986   12.9682 H       1  UNL1        0.1564
     18 C          64.3148   92.1263   12.0601 C.ar    1  UNL1        0.0516
     19 C          64.6157   92.5895   10.6655 C.ar    1  UNL1        0.0147
     20 C          65.7928   93.4833   10.4098 C.ar    1  UNL1        0.0013
     21 C          66.6690   93.9140   11.5486 C.ar    1  UNL1        0.0016
     22 C          66.3680   93.4508   12.9432 C.ar    1  UNL1        0.0204
     23 C          67.2441   93.8814   14.0820 C.ar    1  UNL1        0.0984
     24 N          66.9432   93.4182   15.4766 N.ar    1  UNL1       -0.2481
     25 C          65.7660   92.5244   15.7324 C.ar    1  UNL1        0.0594
     26 C          65.4650   92.0612   17.1269 C.3     1  UNL1        0.0521
     27 C          64.8899   92.0937   14.5935 C.ar    1  UNL1        0.0160
     28 C          65.1909   92.5570   13.1989 C.ar    1  UNL1        0.0162
     29 C          62.3945   83.7516   10.5576 C.3     1  UNL1        0.0401
     30 C          64.0259   81.7311   10.4768 C.3     1  UNL1        0.0001
     31 C          63.7601   83.1947   10.2834 C.3     1  UNL1        0.0036
     32 C          63.0754   84.7628   12.0518 C.3     1  UNL1        0.0401
     33 C          62.4606   84.6036   13.4108 C.3     1  UNL1        0.0036
     34 C          62.7805   83.3966   14.2419 C.3     1  UNL1        0.0001
@<TRIPOS>BOND
     1    30    31    1
     2    31    29    1
     3    29     1    1
     4     1    32    1
     5    32    33    1
     6    33    34    1
     7     1     2    1
     8     2     3    1
     9     3    12    1
    10    12    13   am
    11    13    14    2
    12    13    15   am
    13    15    18    1
    14    18    19   ar
    15    19    20   ar
    16    20    21   ar
    17    21    22   ar
    18    22    23   ar
    19    23    24   ar
    20    24    25   ar
    21    25    26    1
    22    25    27   ar
    23    27    28   ar
    24     3     4    1
    25     4     5   ar
    26     5     6   ar
    27     6     7   ar
    28     7     8   ar
    29     8     9    1
    30     8    10   ar
    31    10    11    1
    32    11     1    1
    33    28    18   ar
    34    10     4   ar
    35    28    22   ar
    36    12    16    1
    37    15    17    1
