@<TRIPOS>MOLECULE
*****
 24 26 0 0 0
SMALL
GASTEIGER

@<TRIPOS>ATOM
      1 C          63.6003   85.4211   13.0713 C.ar    1  UNL1       -0.0144
      2 C          63.1951   84.1146   12.4557 C.ar    1  UNL1        0.0051
      3 S          62.4199   84.4117   11.2063 S.2     1  UNL1       -0.0915
      4 C          62.3460   85.9016   11.0498 C.ar    1  UNL1        0.0288
      5 C          61.7087   86.7709   10.0067 C.ar    1  UNL1        0.0065
      6 C          61.8009   88.2640   10.1162 C.ar    1  UNL1        0.0005
      7 C          62.5304   88.8879   11.2689 C.ar    1  UNL1        0.0000
      8 C          63.1677   88.0186   12.3120 C.ar    1  UNL1        0.0002
      9 C          63.0755   86.5255   12.2025 C.ar    1  UNL1        0.0025
     10 C          64.3913   85.5929   14.3341 C.3     1  UNL1        0.0628
     11 C          65.7629   84.9961   14.4471 C.3     1  UNL1        0.0110
     12 C          63.2545   88.6300   16.6219 C.ar    1  UNL1        0.2246
     13 C          62.6502   87.8989   17.7839 C.ar    1  UNL1        0.0577
     14 C          62.6262   86.3991   17.7960 C.ar    1  UNL1        0.0060
     15 C          63.2066   85.6305   16.6461 C.ar    1  UNL1        0.0153
     16 C          63.8110   86.3616   15.4840 C.ar    1  UNL1        0.0658
     17 N          63.8349   87.8613   15.4720 N.ar    1  UNL1       -0.2157
     18 C          63.9579   90.8600   15.4896 C.3     1  UNL1        0.2542
     19 O          63.2784   90.1297   16.6099 O.3     1  UNL1       -0.4561
     20 C          63.5098   82.7507   12.9947 C.3     1  UNL1        0.0499
     21 C          62.6182   82.1285   14.0280 C.3     1  UNL1        0.0774
     22 N          61.8591   80.8751   13.7071 N.3     1  UNL1       -0.2700
     23 C          62.5201   79.7766   12.9283 C.3     1  UNL1        0.0897
     24 C          60.4392   80.7203   14.1649 C.3     1  UNL1        0.0897
@<TRIPOS>BOND
     1    18    19    1
     2    19    12    1
     3    12    13   ar
     4    13    14   ar
     5    14    15   ar
     6    15    16   ar
     7    16    10    1
     8    10    11    1
     9    10     1    1
    10     1     2   ar
    11     2    20    1
    12    20    21    1
    13    21    22    1
    14    22    23    1
    15    22    24    1
    16     2     3   ar
    17     3     4   ar
    18     4     5   ar
    19     5     6   ar
    20     6     7   ar
    21     7     8   ar
    22     8     9   ar
    23    16    17   ar
    24    17    12   ar
    25     9     1   ar
    26     9     4   ar
@<TRIPOS>MOLECULE
*****
 24 26 0 0 0
SMALL
GASTEIGER

@<TRIPOS>ATOM
      1 C          61.4169   88.1828   10.8475 C.ar    1  UNL1       -0.0144
      2 C          62.1934   86.9540   11.2179 C.ar    1  UNL1        0.0051
      3 S          61.9621   85.9216   10.1546 S.2     1  UNL1       -0.0915
      4 C          61.0427   86.5122    9.1271 C.ar    1  UNL1        0.0288
      5 C          60.4688   85.9581    7.8569 C.ar    1  UNL1        0.0065
      6 C          59.5579   86.8015    7.0149 C.ar    1  UNL1        0.0005
      7 C          59.2209   88.1990    7.4432 C.ar    1  UNL1        0.0000
      8 C          59.7948   88.7531    8.7134 C.ar    1  UNL1        0.0002
      9 C          60.7057   87.9097    9.5554 C.ar    1  UNL1        0.0025
     10 C          61.3613   89.4603   11.6317 C.3     1  UNL1        0.0628
     11 C          60.0966   89.8535   12.3362 C.3     1  UNL1        0.0110
     12 C          64.4392   91.4796   13.1144 C.ar    1  UNL1        0.2246
     13 C          64.9881   92.1134   11.8707 C.ar    1  UNL1        0.0577
     14 C          64.3280   91.8629   10.5472 C.ar    1  UNL1        0.0060
     15 C          63.1191   90.9785   10.4676 C.ar    1  UNL1        0.0153
     16 C          62.5702   90.3446   11.7114 C.ar    1  UNL1        0.0658
     17 N          63.2303   90.5952   13.0348 N.ar    1  UNL1       -0.2157
     18 C          66.5753   91.5122   14.5930 C.3     1  UNL1        0.2542
     19 O          65.0993   91.7301   14.4379 O.3     1  UNL1       -0.4561
     20 C          63.0507   86.7870   12.4374 C.3     1  UNL1        0.0499
     21 C          63.3238   85.4156   12.9802 C.3     1  UNL1        0.0774
     22 N          63.2693   85.1696   14.4589 N.3     1  UNL1       -0.2700
     23 C          64.1535   85.9538   15.3827 C.3     1  UNL1        0.0897
     24 C          62.3306   84.1396   15.0137 C.3     1  UNL1        0.0897
@<TRIPOS>BOND
     1    18    19    1
     2    19    12    1
     3    12    13   ar
     4    13    14   ar
     5    14    15   ar
     6    15    16   ar
     7    16    10    1
     8    10    11    1
     9    10     1    1
    10     1     2   ar
    11     2    20    1
    12    20    21    1
    13    21    22    1
    14    22    23    1
    15    22    24    1
    16     2     3   ar
    17     3     4   ar
    18     4     5   ar
    19     5     6   ar
    20     6     7   ar
    21     7     8   ar
    22     8     9   ar
    23    16    17   ar
    24    17    12   ar
    25     9     1   ar
    26     9     4   ar
@<TRIPOS>MOLECULE
*****
 24 26 0 0 0
SMALL
GASTEIGER

@<TRIPOS>ATOM
      1 C          63.1692   90.3723   12.6701 C.ar    1  UNL1       -0.0144
      2 C          63.4698   90.1650   14.1250 C.ar    1  UNL1        0.0051
      3 S          64.6916   90.9661   14.4646 S.2     1  UNL1       -0.0915
      4 C          65.1462   91.6685   13.2196 C.ar    1  UNL1        0.0288
      5 C          66.2954   92.5948   12.9526 C.ar    1  UNL1        0.0065
      6 C          66.5036   93.1541   11.5765 C.ar    1  UNL1        0.0005
      7 C          65.5627   92.7872   10.4674 C.ar    1  UNL1        0.0000
      8 C          64.4136   91.8609   10.7345 C.ar    1  UNL1        0.0002
      9 C          64.2053   91.3015   12.1106 C.ar    1  UNL1        0.0025
     10 C          62.0322   89.7583   11.9085 C.3     1  UNL1        0.0628
     11 C          60.7416   90.5071   11.7543 C.3     1  UNL1        0.0110
     12 C          62.7241   85.8665   11.5547 C.ar    1  UNL1        0.2246
     13 C          62.4926   85.6698   10.0859 C.ar    1  UNL1        0.0577
     14 C          62.1076   86.8359    9.2244 C.ar    1  UNL1        0.0060
     15 C          61.9541   88.1987    9.8320 C.ar    1  UNL1        0.0153
     16 C          62.1857   88.3955   11.3010 C.ar    1  UNL1        0.0658
     17 N          62.5707   87.2293   12.1623 N.ar    1  UNL1       -0.2157
     18 C          62.8569   83.3005   11.9397 C.3     1  UNL1        0.2542
     19 O          63.1091   84.7003   12.4160 O.3     1  UNL1       -0.4561
     20 C          62.6860   89.3073   15.0737 C.3     1  UNL1        0.0499
     21 C          63.3676   88.6748   16.2508 C.3     1  UNL1        0.0774
     22 N          63.3478   87.1842   16.4171 N.3     1  UNL1       -0.2700
     23 C          62.5825   86.5661   17.5496 C.3     1  UNL1        0.0897
     24 C          64.0931   86.3118   15.4511 C.3     1  UNL1        0.0897
@<TRIPOS>BOND
     1    18    19    1
     2    19    12    1
     3    12    13   ar
     4    13    14   ar
     5    14    15   ar
     6    15    16   ar
     7    16    10    1
     8    10    11    1
     9    10     1    1
    10     1     2   ar
    11     2    20    1
    12    20    21    1
    13    21    22    1
    14    22    23    1
    15    22    24    1
    16     2     3   ar
    17     3     4   ar
    18     4     5   ar
    19     5     6   ar
    20     6     7   ar
    21     7     8   ar
    22     8     9   ar
    23    16    17   ar
    24    17    12   ar
    25     9     1   ar
    26     9     4   ar
@<TRIPOS>MOLECULE
*****
 24 26 0 0 0
SMALL
GASTEIGER

@<TRIPOS>ATOM
      1 C          63.8280   84.7967   13.4662 C.ar    1  UNL1       -0.0144
      2 C          63.1291   85.5062   12.3446 C.ar    1  UNL1        0.0051
      3 S          62.4433   84.4742   11.4992 S.2     1  UNL1       -0.0915
      4 C          62.7183   83.1269   12.0984 C.ar    1  UNL1        0.0288
      5 C          62.3000   81.7443   11.6941 C.ar    1  UNL1        0.0065
      6 C          62.7375   80.5610   12.5055 C.ar    1  UNL1        0.0005
      7 C          63.5932   80.7603   13.7213 C.ar    1  UNL1        0.0000
      8 C          64.0115   82.1429   14.1256 C.ar    1  UNL1        0.0002
      9 C          63.5740   83.3262   13.3141 C.ar    1  UNL1        0.0025
     10 C          64.6384   85.4440   14.5498 C.3     1  UNL1        0.0628
     11 C          66.1234   85.2379   14.6005 C.3     1  UNL1        0.0110
     12 C          63.2050   88.6356   16.4229 C.ar    1  UNL1        0.2246
     13 C          62.6153   88.0038   17.6488 C.ar    1  UNL1        0.0577
     14 C          62.6999   86.5186   17.8418 C.ar    1  UNL1        0.0060
     15 C          63.3743   85.6654   16.8088 C.ar    1  UNL1        0.0153
     16 C          63.9641   86.2972   15.5828 C.ar    1  UNL1        0.0658
     17 N          63.8794   87.7824   15.3899 N.ar    1  UNL1       -0.2157
     18 C          64.1483   90.8288   15.3982 C.3     1  UNL1        0.2542
     19 O          63.1204   90.1208   16.2300 O.3     1  UNL1       -0.4561
     20 C          63.1181   86.9877   12.1095 C.3     1  UNL1        0.0499
     21 C          62.0763   87.5981   11.2195 C.3     1  UNL1        0.0774
     22 N          61.4215   88.8904   11.6083 N.3     1  UNL1       -0.2700
     23 C          59.9542   89.0895   11.3687 C.3     1  UNL1        0.0897
     24 C          62.2340   89.9836   12.2366 C.3     1  UNL1        0.0897
@<TRIPOS>BOND
     1    18    19    1
     2    19    12    1
     3    12    13   ar
     4    13    14   ar
     5    14    15   ar
     6    15    16   ar
     7    16    10    1
     8    10    11    1
     9    10     1    1
    10     1     2   ar
    11     2    20    1
    12    20    21    1
    13    21    22    1
    14    22    23    1
    15    22    24    1
    16     2     3   ar
    17     3     4   ar
    18     4     5   ar
    19     5     6   ar
    20     6     7   ar
    21     7     8   ar
    22     8     9   ar
    23    16    17   ar
    24    17    12   ar
    25     9     1   ar
    26     9     4   ar
@<TRIPOS>MOLECULE
*****
 24 26 0 0 0
SMALL
GASTEIGER

@<TRIPOS>ATOM
      1 C          63.7378   90.5584   13.8625 C.ar    1  UNL1       -0.0144
      2 C          62.7085   90.3143   12.7990 C.ar    1  UNL1        0.0051
      3 S          63.2028   90.9329   11.5250 S.2     1  UNL1       -0.0915
      4 C          64.5374   91.5593   11.8010 C.ar    1  UNL1        0.0288
      5 C          65.4944   92.3105   10.9236 C.ar    1  UNL1        0.0065
      6 C          66.7820   92.8303   11.4909 C.ar    1  UNL1        0.0005
      7 C          67.1127   92.5989   12.9355 C.ar    1  UNL1        0.0000
      8 C          66.1558   91.8477   13.8130 C.ar    1  UNL1        0.0002
      9 C          64.8681   91.3279   13.2457 C.ar    1  UNL1        0.0025
     10 C          63.6519   90.1116   15.2918 C.3     1  UNL1        0.0628
     11 C          63.5864   91.1283   16.3928 C.3     1  UNL1        0.0110
     12 C          64.2229   86.1950   15.0022 C.ar    1  UNL1        0.2246
     13 C          63.5904   85.7212   16.2771 C.ar    1  UNL1        0.0577
     14 C          62.9783   86.7110   17.2236 C.ar    1  UNL1        0.0060
     15 C          62.9988   88.1744   16.8952 C.ar    1  UNL1        0.0153
     16 C          63.6314   88.6482   15.6202 C.ar    1  UNL1        0.0658
     17 N          64.2434   87.6584   14.6737 N.ar    1  UNL1       -0.2157
     18 C          64.3439   83.7881   14.0315 C.3     1  UNL1        0.2542
     19 O          64.8349   85.2052   14.0557 O.3     1  UNL1       -0.4561
     20 C          61.4126   89.5805   12.9781 C.3     1  UNL1        0.0499
     21 C          60.3830   89.5996   11.8875 C.3     1  UNL1        0.0774
     22 N          60.5166   88.6755   10.7135 N.3     1  UNL1       -0.2700
     23 C          60.7715   87.2139   10.9348 C.3     1  UNL1        0.0897
     24 C          60.3954   89.2130    9.3184 C.3     1  UNL1        0.0897
@<TRIPOS>BOND
     1    18    19    1
     2    19    12    1
     3    12    13   ar
     4    13    14   ar
     5    14    15   ar
     6    15    16   ar
     7    16    10    1
     8    10    11    1
     9    10     1    1
    10     1     2   ar
    11     2    20    1
    12    20    21    1
    13    21    22    1
    14    22    23    1
    15    22    24    1
    16     2     3   ar
    17     3     4   ar
    18     4     5   ar
    19     5     6   ar
    20     6     7   ar
    21     7     8   ar
    22     8     9   ar
    23    16    17   ar
    24    17    12   ar
    25     9     1   ar
    26     9     4   ar
@<TRIPOS>MOLECULE
*****
 24 26 0 0 0
SMALL
GASTEIGER

@<TRIPOS>ATOM
      1 C          62.1748   86.4095   10.5416 C.ar    1  UNL1       -0.0144
      2 C          62.4522   87.6533   11.3328 C.ar    1  UNL1        0.0051
      3 S          61.5911   88.7527   10.7852 S.2     1  UNL1       -0.0915
      4 C          60.7815   88.1883    9.6555 C.ar    1  UNL1        0.0288
      5 C          59.7624   88.8060    8.7445 C.ar    1  UNL1        0.0065
      6 C          59.1041   87.9755    7.6831 C.ar    1  UNL1        0.0005
      7 C          59.4648   86.5273    7.5325 C.ar    1  UNL1        0.0000
      8 C          60.4839   85.9096    8.4435 C.ar    1  UNL1        0.0002
      9 C          61.1422   86.7401    9.5050 C.ar    1  UNL1        0.0025
     10 C          62.8171   85.0702   10.7504 C.3     1  UNL1        0.0628
     11 C          63.6449   84.4572    9.6598 C.3     1  UNL1        0.0110
     12 C          62.3453   84.3883   14.6314 C.ar    1  UNL1        0.2246
     13 C          62.2611   82.8908   14.6479 C.ar    1  UNL1        0.0577
     14 C          62.3622   82.1196   13.3653 C.ar    1  UNL1        0.0060
     15 C          62.5475   82.8461   12.0661 C.ar    1  UNL1        0.0153
     16 C          62.6318   84.3438   12.0495 C.ar    1  UNL1        0.0658
     17 N          62.5306   85.1148   13.3322 N.ar    1  UNL1       -0.2157
     18 C          63.4451   85.8779   16.4539 C.3     1  UNL1        0.2542
     19 O          62.2442   85.1593   15.9141 O.3     1  UNL1       -0.4561
     20 C          63.4207   87.7762   12.4716 C.3     1  UNL1        0.0499
     21 C          63.2665   88.8840   13.4711 C.3     1  UNL1        0.0774
     22 N          64.1077   90.1205   13.3560 N.3     1  UNL1       -0.2700
     23 C          63.9136   91.0546   12.1985 C.3     1  UNL1        0.0897
     24 C          65.1431   90.4229   14.3984 C.3     1  UNL1        0.0897
@<TRIPOS>BOND
     1    18    19    1
     2    19    12    1
     3    12    13   ar
     4    13    14   ar
     5    14    15   ar
     6    15    16   ar
     7    16    10    1
     8    10    11    1
     9    10     1    1
    10     1     2   ar
    11     2    20    1
    12    20    21    1
    13    21    22    1
    14    22    23    1
    15    22    24    1
    16     2     3   ar
    17     3     4   ar
    18     4     5   ar
    19     5     6   ar
    20     6     7   ar
    21     7     8   ar
    22     8     9   ar
    23    16    17   ar
    24    17    12   ar
    25     9     1   ar
    26     9     4   ar
@<TRIPOS>MOLECULE
*****
 24 26 0 0 0
SMALL
GASTEIGER

@<TRIPOS>ATOM
      1 C          63.0270   84.3812   11.9207 C.ar    1  UNL1       -0.0144
      2 C          63.3381   85.2263   13.1203 C.ar    1  UNL1        0.0051
      3 S          63.3937   84.3265   14.3192 S.2     1  UNL1       -0.0915
      4 C          63.1168   82.9254   13.8606 C.ar    1  UNL1        0.0288
      5 C          63.0418   81.6233   14.6013 C.ar    1  UNL1        0.0065
      6 C          62.7402   80.3549   13.8596 C.ar    1  UNL1        0.0005
      7 C          62.5136   80.3887   12.3772 C.ar    1  UNL1        0.0000
      8 C          62.5886   81.6909   11.6365 C.ar    1  UNL1        0.0002
      9 C          62.8902   82.9592   12.3782 C.ar    1  UNL1        0.0025
     10 C          62.8786   84.8720   10.5110 C.3     1  UNL1        0.0628
     11 C          63.7735   84.3369    9.4325 C.3     1  UNL1        0.0110
     12 C          60.1829   87.7528   10.9396 C.ar    1  UNL1        0.2246
     13 C          59.7494   87.9493    9.5172 C.ar    1  UNL1        0.0577
     14 C          60.3590   87.1200    8.4259 C.ar    1  UNL1        0.0060
     15 C          61.4021   86.0943    8.7573 C.ar    1  UNL1        0.0153
     16 C          61.8356   85.8977   10.1798 C.ar    1  UNL1        0.0658
     17 N          61.2260   86.7270   11.2709 N.ar    1  UNL1       -0.2157
     18 C          59.5196   90.0751   11.8971 C.3     1  UNL1        0.2542
     19 O          59.5733   88.5821   12.0308 O.3     1  UNL1       -0.4561
     20 C          63.5556   86.7104   13.1209 C.3     1  UNL1        0.0499
     21 C          64.2203   87.3706   14.2924 C.3     1  UNL1        0.0774
     22 N          63.8629   88.7799   14.6613 N.3     1  UNL1       -0.2700
     23 C          63.9936   89.8769   13.6466 C.3     1  UNL1        0.0897
     24 C          63.3750   89.0922   16.0448 C.3     1  UNL1        0.0897
@<TRIPOS>BOND
     1    18    19    1
     2    19    12    1
     3    12    13   ar
     4    13    14   ar
     5    14    15   ar
     6    15    16   ar
     7    16    10    1
     8    10    11    1
     9    10     1    1
    10     1     2   ar
    11     2    20    1
    12    20    21    1
    13    21    22    1
    14    22    23    1
    15    22    24    1
    16     2     3   ar
    17     3     4   ar
    18     4     5   ar
    19     5     6   ar
    20     6     7   ar
    21     7     8   ar
    22     8     9   ar
    23    16    17   ar
    24    17    12   ar
    25     9     1   ar
    26     9     4   ar
@<TRIPOS>MOLECULE
*****
 24 26 0 0 0
SMALL
GASTEIGER

@<TRIPOS>ATOM
      1 C          64.0951   89.7968   13.7730 C.ar    1  UNL1       -0.0144
      2 C          63.3854   89.9871   12.4653 C.ar    1  UNL1        0.0051
      3 S          63.9433   91.2154   11.8096 S.2     1  UNL1       -0.0915
      4 C          64.9978   91.7843   12.7121 C.ar    1  UNL1        0.0288
      5 C          65.8847   92.9874   12.5856 C.ar    1  UNL1        0.0065
      6 C          66.8654   93.3137   13.6726 C.ar    1  UNL1        0.0005
      7 C          66.9593   92.4369   14.8861 C.ar    1  UNL1        0.0000
      8 C          66.0724   91.2338   15.0125 C.ar    1  UNL1        0.0002
      9 C          65.0916   90.9075   13.9255 C.ar    1  UNL1        0.0025
     10 C          63.8512   88.6901   14.7557 C.3     1  UNL1        0.0628
     11 C          63.3740   89.0093   16.1416 C.3     1  UNL1        0.0110
     12 C          63.5240   85.2366   12.8281 C.ar    1  UNL1        0.2246
     13 C          64.5507   84.4124   13.5467 C.ar    1  UNL1        0.0577
     14 C          65.3444   85.0142   14.6684 C.ar    1  UNL1        0.0060
     15 C          65.1112   86.4401   15.0714 C.ar    1  UNL1        0.0153
     16 C          64.0843   87.2643   14.3527 C.ar    1  UNL1        0.0658
     17 N          63.2907   86.6625   13.2311 N.ar    1  UNL1       -0.2157
     18 C          61.8127   85.4962   10.8906 C.3     1  UNL1        0.2542
     19 O          62.7304   84.6348   11.7065 O.3     1  UNL1       -0.4561
     20 C          62.3070   89.1041   11.9107 C.3     1  UNL1        0.0499
     21 C          61.9880   89.1400   10.4455 C.3     1  UNL1        0.0774
     22 N          60.6147   89.5315    9.9863 N.3     1  UNL1       -0.2700
     23 C          60.0919   89.0304    8.6726 C.3     1  UNL1        0.0897
     24 C          59.7643   90.4241   10.8407 C.3     1  UNL1        0.0897
@<TRIPOS>BOND
     1    18    19    1
     2    19    12    1
     3    12    13   ar
     4    13    14   ar
     5    14    15   ar
     6    15    16   ar
     7    16    10    1
     8    10    11    1
     9    10     1    1
    10     1     2   ar
    11     2    20    1
    12    20    21    1
    13    21    22    1
    14    22    23    1
    15    22    24    1
    16     2     3   ar
    17     3     4   ar
    18     4     5   ar
    19     5     6   ar
    20     6     7   ar
    21     7     8   ar
    22     8     9   ar
    23    16    17   ar
    24    17    12   ar
    25     9     1   ar
    26     9     4   ar
@<TRIPOS>MOLECULE
*****
 24 26 0 0 0
SMALL
GASTEIGER

@<TRIPOS>ATOM
      1 C          63.9771   89.6044   13.7738 C.ar    1  UNL1       -0.0144
      2 C          64.7912   90.8546   13.9301 C.ar    1  UNL1        0.0051
      3 S          64.6410   91.6651   12.6769 S.2     1  UNL1       -0.0915
      4 C          63.7342   90.9159   11.7461 C.ar    1  UNL1        0.0288
      5 C          63.2290   91.2289   10.3689 C.ar    1  UNL1        0.0065
      6 C          62.3136   90.2683    9.6696 C.ar    1  UNL1        0.0005
      7 C          61.9032   88.9947   10.3475 C.ar    1  UNL1        0.0000
      8 C          62.4084   88.6817   11.7247 C.ar    1  UNL1        0.0002
      9 C          63.3238   89.6423   12.4241 C.ar    1  UNL1        0.0025
     10 C          63.8403   88.5087   14.7890 C.3     1  UNL1        0.0628
     11 C          63.4236   88.8346   16.1928 C.3     1  UNL1        0.0110
     12 C          63.5807   85.0049   12.9436 C.ar    1  UNL1        0.2246
     13 C          64.6797   84.2440   13.6240 C.ar    1  UNL1        0.0577
     14 C          65.4990   84.9046   14.6929 C.ar    1  UNL1        0.0060
     15 C          65.2192   86.3262   15.0812 C.ar    1  UNL1        0.0153
     16 C          64.1201   87.0872   14.4007 C.ar    1  UNL1        0.0658
     17 N          63.3009   86.4265   13.3319 N.ar    1  UNL1       -0.2157
     18 C          62.4454   85.0826   10.6080 C.3     1  UNL1        0.2542
     19 O          62.7615   84.3442   11.8748 O.3     1  UNL1       -0.4561
     20 C          65.6114   91.2285   15.1290 C.3     1  UNL1        0.0499
     21 C          66.3150   92.5525   15.1730 C.3     1  UNL1        0.0774
     22 N          67.7726   92.6389   14.8296 N.3     1  UNL1       -0.2700
     23 C          68.3039   91.9166   13.6271 C.3     1  UNL1        0.0897
     24 C          68.6989   93.4476   15.6887 C.3     1  UNL1        0.0897
@<TRIPOS>BOND
     1    18    19    1
     2    19    12    1
     3    12    13   ar
     4    13    14   ar
     5    14    15   ar
     6    15    16   ar
     7    16    10    1
     8    10    11    1
     9    10     1    1
    10     1     2   ar
    11     2    20    1
    12    20    21    1
    13    21    22    1
    14    22    23    1
    15    22    24    1
    16     2     3   ar
    17     3     4   ar
    18     4     5   ar
    19     5     6   ar
    20     6     7   ar
    21     7     8   ar
    22     8     9   ar
    23    16    17   ar
    24    17    12   ar
    25     9     1   ar
    26     9     4   ar
