@<TRIPOS>MOLECULE
*****
 43 46 0 0 0
SMALL
GASTEIGER

@<TRIPOS>ATOM
      1 N          62.0713   89.4369   12.3005 N.3     1  UNL1       -0.2699
      2 C          59.4852   89.6722   12.2167 C.3     1  UNL1        0.0188
      3 C          60.8375   89.9883   11.6496 C.3     1  UNL1        0.0722
      4 C          62.7564   88.2380   11.7146 C.3     1  UNL1        0.0924
      5 C          62.0541   87.4003   10.6874 C.3     1  UNL1        0.0950
      6 N          61.8701   87.9215    9.2929 N.am    1  UNL1       -0.2706
      7 C          60.4937   88.0215    8.7052 C.2     1  UNL1        0.4020
      8 O          59.3013   87.6002    9.5118 O.2     1  UNL1       -0.2264
      9 H          62.6527   88.1981    8.7635 H       1  UNL1        0.1527
     10 O          60.3097   88.5427    7.3108 O.3     1  UNL1       -0.4291
     11 C          58.9711   89.0598    6.8739 C.3     1  UNL1        0.2447
     12 C          58.8879   90.2237    5.9314 C.ar    1  UNL1        0.0714
     13 C          57.6302   90.9089    5.4853 C.ar    1  UNL1        0.1053
     14 N          58.0128   92.0155    4.5477 N.ar    1  UNL1       -0.2350
     15 C          59.5069   92.0142    4.4143 C.ar    1  UNL1        0.1343
     16 S          60.0477   90.9068    5.2695 S.2     1  UNL1       -0.0652
     17 C          61.5359   86.0414   11.0546 C.3     1  UNL1        0.0474
     18 C          62.4870   84.8911   11.2033 C.ar    1  UNL1       -0.0205
     19 C          62.7165   84.2772   12.5526 C.ar    1  UNL1       -0.0042
     20 C          63.6675   83.1268   12.7012 C.ar    1  UNL1       -0.0003
     21 C          64.3891   82.5902   11.5005 C.ar    1  UNL1       -0.0000
     22 C          64.1596   83.2041   10.1513 C.ar    1  UNL1       -0.0003
     23 C          63.2085   84.3545   10.0027 C.ar    1  UNL1       -0.0042
     24 C          62.6199   90.0844   13.5373 C.3     1  UNL1        0.0924
     25 C          64.0978   90.2980   13.6794 C.3     1  UNL1        0.0950
     26 N          64.7616   91.4425   12.9727 N.am    1  UNL1       -0.2706
     27 C          65.4902   92.4899   13.7614 C.2     1  UNL1        0.4020
     28 O          65.5550   92.3928   15.2569 O.2     1  UNL1       -0.2264
     29 H          64.7191   91.5062   11.9912 H       1  UNL1        0.1527
     30 O          66.1540   93.6344   13.0548 O.3     1  UNL1       -0.4274
     31 C          65.8517   93.9005   11.6098 C.3     1  UNL1        0.2621
     32 C          66.8716   93.5774   10.5584 C.ar    1  UNL1        0.1323
     33 N          67.8250   92.4196   10.5811 N.ar    1  UNL1       -0.2374
     34 C          68.6598   92.4820    9.3365 C.ar    1  UNL1        0.1062
     35 C          68.2224   93.6785    8.5445 C.ar    1  UNL1        0.0573
     36 S          67.1172   94.3555    9.2997 S.2     1  UNL1       -0.0666
     37 C          64.9120   89.3670   14.5283 C.3     1  UNL1        0.0474
     38 C          64.2344   88.2890   15.3211 C.ar    1  UNL1       -0.0205
     39 C          64.3903   86.8521   14.9196 C.ar    1  UNL1       -0.0042
     40 C          63.7127   85.7740   15.7124 C.ar    1  UNL1       -0.0003
     41 C          62.8792   86.1328   16.9068 C.ar    1  UNL1       -0.0000
     42 C          62.7232   87.5696   17.3084 C.ar    1  UNL1       -0.0003
     43 C          63.4009   88.6477   16.5155 C.ar    1  UNL1       -0.0042
@<TRIPOS>BOND
     1     2     3    1
     2     3     1    1
     3     1    24    1
     4    25    24    1
     5    25    37    1
     6    37    38    1
     7    38    39   ar
     8    39    40   ar
     9    40    41   ar
    10    41    42   ar
    11    42    43   ar
    12    25    26    1
    13    26    27   am
    14    27    28    2
    15    27    30    1
    16    30    31    1
    17    31    32    1
    18    32    33   ar
    19    33    34   ar
    20    34    35   ar
    21    35    36   ar
    22     1     4    1
    23     5     4    1
    24     5    17    1
    25    17    18    1
    26    18    19   ar
    27    19    20   ar
    28    20    21   ar
    29    21    22   ar
    30    22    23   ar
    31     5     6    1
    32     6     7   am
    33     7     8    2
    34     7    10    1
    35    10    11    1
    36    11    12    1
    37    12    13   ar
    38    13    14   ar
    39    14    15   ar
    40    15    16   ar
    41    43    38   ar
    42    36    32   ar
    43    23    18   ar
    44    16    12   ar
    45    26    29    1
    46     6     9    1
@<TRIPOS>MOLECULE
*****
 43 46 0 0 0
SMALL
GASTEIGER

@<TRIPOS>ATOM
      1 N          62.7191   89.8300   12.1110 N.3     1  UNL1       -0.2699
      2 C          63.8704   91.5916   10.5874 C.3     1  UNL1        0.0188
      3 C          62.6229   90.9421   11.1091 C.3     1  UNL1        0.0722
      4 C          63.0820   88.4455   11.6621 C.3     1  UNL1        0.0924
      5 C          62.0145   87.4030   11.5082 C.3     1  UNL1        0.0950
      6 N          62.3545   85.9513   11.6726 N.am    1  UNL1       -0.2706
      7 C          62.7584   85.1359   10.4802 C.2     1  UNL1        0.4020
      8 O          62.8223   85.7722    9.1233 O.2     1  UNL1       -0.2264
      9 H          62.3126   85.5337   12.5632 H       1  UNL1        0.1527
     10 O          63.0985   83.6843   10.6446 O.3     1  UNL1       -0.4291
     11 C          63.7087   83.1973   11.9255 C.3     1  UNL1        0.2447
     12 C          62.9940   82.1714   12.7542 C.ar    1  UNL1        0.0714
     13 C          62.3859   82.3983   14.1065 C.ar    1  UNL1        0.1053
     14 N          61.7781   81.1056   14.5643 N.ar    1  UNL1       -0.2350
     15 C          62.0105   80.0798   13.4948 C.ar    1  UNL1        0.1343
     16 S          62.7620   80.7385   12.3761 S.2     1  UNL1       -0.0652
     17 C          60.6069   87.8122   11.1899 C.3     1  UNL1        0.0474
     18 C          60.1742   87.9619    9.7615 C.ar    1  UNL1       -0.0205
     19 C          59.7251   86.7602    8.9841 C.ar    1  UNL1       -0.0042
     20 C          59.2923   86.9099    7.5557 C.ar    1  UNL1       -0.0003
     21 C          59.3087   88.2612    6.9047 C.ar    1  UNL1       -0.0000
     22 C          59.7578   89.4628    7.6822 C.ar    1  UNL1       -0.0003
     23 C          60.1906   89.3131    9.1106 C.ar    1  UNL1       -0.0042
     24 C          62.4524   90.1023   13.5617 C.3     1  UNL1        0.0924
     25 C          63.5966   90.2348   14.5226 C.3     1  UNL1        0.0950
     26 N          64.8293   90.9894   14.1215 N.am    1  UNL1       -0.2706
     27 C          65.3866   92.0498   15.0244 C.2     1  UNL1        0.4020
     28 O          64.7112   92.3555   16.3283 O.2     1  UNL1       -0.2264
     29 H          65.2726   90.7888   13.2657 H       1  UNL1        0.1527
     30 O          66.6193   92.8044   14.6233 O.3     1  UNL1       -0.4274
     31 C          66.5080   93.9972   13.7206 C.3     1  UNL1        0.2621
     32 C          66.6557   93.8315   12.2371 C.ar    1  UNL1        0.1323
     33 N          67.3466   92.6964   11.5412 N.ar    1  UNL1       -0.2374
     34 C          67.2564   92.9351   10.0631 C.ar    1  UNL1        0.1062
     35 C          66.5098   94.2178    9.8454 C.ar    1  UNL1        0.0573
     36 S          66.1386   94.7718   11.1890 S.2     1  UNL1       -0.0666
     37 C          63.5080   89.6127   15.8847 C.3     1  UNL1        0.0474
     38 C          63.5078   88.1197   16.0287 C.ar    1  UNL1       -0.0205
     39 C          64.2579   87.2712   15.0450 C.ar    1  UNL1       -0.0042
     40 C          64.2578   85.7782   15.1891 C.ar    1  UNL1       -0.0003
     41 C          63.5076   85.1335   16.3167 C.ar    1  UNL1       -0.0000
     42 C          62.7575   85.9819   17.3004 C.ar    1  UNL1       -0.0003
     43 C          62.7577   87.4750   17.1564 C.ar    1  UNL1       -0.0042
@<TRIPOS>BOND
     1     2     3    1
     2     3     1    1
     3     1    24    1
     4    25    24    1
     5    25    37    1
     6    37    38    1
     7    38    39   ar
     8    39    40   ar
     9    40    41   ar
    10    41    42   ar
    11    42    43   ar
    12    25    26    1
    13    26    27   am
    14    27    28    2
    15    27    30    1
    16    30    31    1
    17    31    32    1
    18    32    33   ar
    19    33    34   ar
    20    34    35   ar
    21    35    36   ar
    22     1     4    1
    23     5     4    1
    24     5    17    1
    25    17    18    1
    26    18    19   ar
    27    19    20   ar
    28    20    21   ar
    29    21    22   ar
    30    22    23   ar
    31     5     6    1
    32     6     7   am
    33     7     8    2
    34     7    10    1
    35    10    11    1
    36    11    12    1
    37    12    13   ar
    38    13    14   ar
    39    14    15   ar
    40    15    16   ar
    41    43    38   ar
    42    36    32   ar
    43    23    18   ar
    44    16    12   ar
    45    26    29    1
    46     6     9    1
@<TRIPOS>MOLECULE
*****
 43 46 0 0 0
SMALL
GASTEIGER

@<TRIPOS>ATOM
      1 N          61.6879   89.9627   11.2910 N.3     1  UNL1       -0.2699
      2 C          63.3133   91.4840    9.9518 C.3     1  UNL1        0.0188
      3 C          62.9237   90.1264   10.4568 C.3     1  UNL1        0.0722
      4 C          61.8012   89.8240   12.7803 C.3     1  UNL1        0.0924
      5 C          63.1512   89.8348   13.4340 C.3     1  UNL1        0.0950
      6 N          63.9481   88.5675   13.5303 N.am    1  UNL1       -0.2706
      7 C          64.0744   87.8592   14.8464 C.2     1  UNL1        0.4020
      8 O          63.4039   88.4180   16.0663 O.2     1  UNL1       -0.2264
      9 H          64.3882   88.2007   12.7296 H       1  UNL1        0.1527
     10 O          64.8713   86.5920   14.9427 O.3     1  UNL1       -0.4291
     11 C          64.2962   85.3957   15.6414 C.3     1  UNL1        0.2447
     12 C          63.8288   84.2143   14.8440 C.ar    1  UNL1        0.0714
     13 C          64.5664   83.5696   13.7081 C.ar    1  UNL1        0.1053
     14 N          63.7352   82.4271   13.2046 N.ar    1  UNL1       -0.2350
     15 C          62.4838   82.3656   14.0294 C.ar    1  UNL1        0.1343
     16 S          62.5417   83.4701   15.0426 S.2     1  UNL1       -0.0652
     17 C          63.7044   91.1128   13.9914 C.3     1  UNL1        0.0474
     18 C          65.1603   91.4345   13.8271 C.ar    1  UNL1       -0.0205
     19 C          65.6555   92.0359   12.5453 C.ar    1  UNL1       -0.0042
     20 C          67.1113   92.3576   12.3810 C.ar    1  UNL1       -0.0003
     21 C          68.0720   92.0780   13.4986 C.ar    1  UNL1       -0.0000
     22 C          67.5768   91.4766   14.7805 C.ar    1  UNL1       -0.0003
     23 C          66.1209   91.1548   14.9447 C.ar    1  UNL1       -0.0042
     24 C          60.3388   89.9378   10.6360 C.3     1  UNL1        0.0924
     25 C          60.1031   89.0677    9.4371 C.3     1  UNL1        0.0950
     26 N          60.1280   89.6641    8.0610 N.am    1  UNL1       -0.2706
     27 C          59.2486   89.1017    6.9838 C.2     1  UNL1        0.4020
     28 O          58.3442   87.9430    7.2827 O.2     1  UNL1       -0.2264
     29 H          60.7216   90.4246    7.8648 H       1  UNL1        0.1527
     30 O          59.2735   89.6981    5.6077 O.3     1  UNL1       -0.4274
     31 C          59.4109   91.1819    5.4357 C.3     1  UNL1        0.2621
     32 C          60.2965   91.7331    4.3578 C.ar    1  UNL1        0.1323
     33 N          61.7536   91.4287    4.1722 N.ar    1  UNL1       -0.2374
     34 C          62.2381   92.1929    2.9759 C.ar    1  UNL1        0.1062
     35 C          61.0805   92.9697    2.4221 C.ar    1  UNL1        0.0573
     36 S          59.8806   92.6855    3.2762 S.2     1  UNL1       -0.0666
     37 C          59.8425   87.6011    9.6143 C.3     1  UNL1        0.0474
     38 C          60.9898   86.6362    9.6644 C.ar    1  UNL1       -0.0205
     39 C          61.7078   86.2584    8.4027 C.ar    1  UNL1       -0.0042
     40 C          62.8551   85.2935    8.4529 C.ar    1  UNL1       -0.0003
     41 C          63.2844   84.7063    9.7647 C.ar    1  UNL1       -0.0000
     42 C          62.5665   85.0840   11.0264 C.ar    1  UNL1       -0.0003
     43 C          61.4191   86.0490   10.9763 C.ar    1  UNL1       -0.0042
@<TRIPOS>BOND
     1     2     3    1
     2     3     1    1
     3     1    24    1
     4    25    24    1
     5    25    37    1
     6    37    38    1
     7    38    39   ar
     8    39    40   ar
     9    40    41   ar
    10    41    42   ar
    11    42    43   ar
    12    25    26    1
    13    26    27   am
    14    27    28    2
    15    27    30    1
    16    30    31    1
    17    31    32    1
    18    32    33   ar
    19    33    34   ar
    20    34    35   ar
    21    35    36   ar
    22     1     4    1
    23     5     4    1
    24     5    17    1
    25    17    18    1
    26    18    19   ar
    27    19    20   ar
    28    20    21   ar
    29    21    22   ar
    30    22    23   ar
    31     5     6    1
    32     6     7   am
    33     7     8    2
    34     7    10    1
    35    10    11    1
    36    11    12    1
    37    12    13   ar
    38    13    14   ar
    39    14    15   ar
    40    15    16   ar
    41    43    38   ar
    42    36    32   ar
    43    23    18   ar
    44    16    12   ar
    45    26    29    1
    46     6     9    1
@<TRIPOS>MOLECULE
*****
 43 46 0 0 0
SMALL
GASTEIGER

@<TRIPOS>ATOM
      1 N          62.2995   89.5157   11.4061 N.3     1  UNL1       -0.2699
      2 C          59.8881   90.4828   11.4092 C.3     1  UNL1        0.0188
      3 C          61.3510   90.6393   11.7021 C.3     1  UNL1        0.0722
      4 C          62.0524   88.6152   10.2321 C.3     1  UNL1        0.0924
      5 C          61.1875   87.3997   10.3883 C.3     1  UNL1        0.0950
      6 N          61.1089   86.7001   11.7129 N.am    1  UNL1       -0.2706
      7 C          62.0758   85.6007   12.0389 C.2     1  UNL1        0.4020
      8 O          63.1213   85.2008   11.0404 O.2     1  UNL1       -0.2264
      9 H          60.4227   86.9626   12.3682 H       1  UNL1        0.1527
     10 O          61.9972   84.9012   13.3635 O.3     1  UNL1       -0.4291
     11 C          63.0070   83.8500   13.7177 C.3     1  UNL1        0.2447
     12 C          62.7683   82.4204   13.3314 C.ar    1  UNL1        0.0714
     13 C          63.2147   81.7648   12.0582 C.ar    1  UNL1        0.1053
     14 N          62.7636   80.3346   12.0904 N.ar    1  UNL1       -0.2350
     15 C          62.0385   80.1063   13.3835 C.ar    1  UNL1        0.1343
     16 S          62.0414   81.3954   14.1505 S.2     1  UNL1       -0.0652
     17 C          60.4011   86.8836    9.2198 C.3     1  UNL1        0.0474
     18 C          61.0610   86.0000    8.2031 C.ar    1  UNL1       -0.0205
     19 C          62.5294   85.7101    8.3017 C.ar    1  UNL1       -0.0042
     20 C          63.1893   84.8264    7.2850 C.ar    1  UNL1       -0.0003
     21 C          62.3808   84.2327    6.1697 C.ar    1  UNL1       -0.0000
     22 C          60.9124   84.5227    6.0711 C.ar    1  UNL1       -0.0003
     23 C          60.2525   85.4063    7.0879 C.ar    1  UNL1       -0.0042
     24 C          63.4951   89.2925   12.2839 C.3     1  UNL1        0.0924
     25 C          63.9784   90.3892   13.1860 C.3     1  UNL1        0.0950
     26 N          64.7708   91.5306   12.6211 N.am    1  UNL1       -0.2706
     27 C          66.0737   91.9239   13.2518 C.2     1  UNL1        0.4020
     28 O          66.5841   91.1758   14.4475 O.2     1  UNL1       -0.2264
     29 H          64.4358   92.0216   11.8363 H       1  UNL1        0.1527
     30 O          66.8661   93.0653   12.6868 O.3     1  UNL1       -0.4274
     31 C          66.1646   94.3038   12.2136 C.3     1  UNL1        0.2621
     32 C          66.4923   94.8843   10.8699 C.ar    1  UNL1        0.1323
     33 N          67.6042   94.4417    9.9656 N.ar    1  UNL1       -0.2374
     34 C          67.5648   95.2932    8.7314 C.ar    1  UNL1        0.1062
     35 C          66.4284   96.2621    8.8729 C.ar    1  UNL1        0.0573
     36 S          65.7656   96.0094   10.1945 S.2     1  UNL1       -0.0666
     37 C          63.6692   90.3444   14.6532 C.3     1  UNL1        0.0474
     38 C          63.6238   89.0277   15.3702 C.ar    1  UNL1       -0.0205
     39 C          62.9033   88.9118   16.6808 C.ar    1  UNL1       -0.0042
     40 C          62.8580   87.5951   17.3979 C.ar    1  UNL1       -0.0003
     41 C          63.5331   86.3943   16.8044 C.ar    1  UNL1       -0.0000
     42 C          64.2536   86.5101   15.4939 C.ar    1  UNL1       -0.0003
     43 C          64.2990   87.8269   14.7768 C.ar    1  UNL1       -0.0042
@<TRIPOS>BOND
     1     2     3    1
     2     3     1    1
     3     1    24    1
     4    25    24    1
     5    25    37    1
     6    37    38    1
     7    38    39   ar
     8    39    40   ar
     9    40    41   ar
    10    41    42   ar
    11    42    43   ar
    12    25    26    1
    13    26    27   am
    14    27    28    2
    15    27    30    1
    16    30    31    1
    17    31    32    1
    18    32    33   ar
    19    33    34   ar
    20    34    35   ar
    21    35    36   ar
    22     1     4    1
    23     5     4    1
    24     5    17    1
    25    17    18    1
    26    18    19   ar
    27    19    20   ar
    28    20    21   ar
    29    21    22   ar
    30    22    23   ar
    31     5     6    1
    32     6     7   am
    33     7     8    2
    34     7    10    1
    35    10    11    1
    36    11    12    1
    37    12    13   ar
    38    13    14   ar
    39    14    15   ar
    40    15    16   ar
    41    43    38   ar
    42    36    32   ar
    43    23    18   ar
    44    16    12   ar
    45    26    29    1
    46     6     9    1
@<TRIPOS>MOLECULE
*****
 43 46 0 0 0
SMALL
GASTEIGER

@<TRIPOS>ATOM
      1 N          62.1110   89.9923   11.4923 N.3     1  UNL1       -0.2699
      2 C          63.4634   91.6915   10.0661 C.3     1  UNL1        0.0188
      3 C          63.2240   90.2853   10.5304 C.3     1  UNL1        0.0722
      4 C          62.4121   89.7859   12.9472 C.3     1  UNL1        0.0924
      5 C          63.8314   89.6197   13.4032 C.3     1  UNL1        0.0950
      6 N          64.7551   90.8013   13.4258 N.am    1  UNL1       -0.2706
      7 C          64.7054   91.7704   14.5697 C.2     1  UNL1        0.4020
      8 O          63.7319   91.5579   15.6909 O.2     1  UNL1       -0.2264
      9 H          65.3941   90.9408   12.6900 H       1  UNL1        0.1527
     10 O          65.6291   92.9520   14.5923 O.3     1  UNL1       -0.4291
     11 C          66.8168   92.9931   13.6770 C.3     1  UNL1        0.2447
     12 C          66.6528   93.4417   12.2551 C.ar    1  UNL1        0.0714
     13 C          66.9169   92.6130   11.0330 C.ar    1  UNL1        0.1053
     14 N          66.6232   93.4569    9.8283 N.ar    1  UNL1       -0.2350
     15 C          66.1775   94.8073   10.3058 C.ar    1  UNL1        0.1343
     16 S          66.1958   94.7978   11.8056 S.2     1  UNL1       -0.0652
     17 C          64.3270   88.2719   13.8366 C.3     1  UNL1        0.0474
     18 C          63.8567   87.6810   15.1325 C.ar    1  UNL1       -0.0205
     19 C          63.9195   86.1977   15.3470 C.ar    1  UNL1       -0.0042
     20 C          63.4492   85.6068   16.6430 C.ar    1  UNL1       -0.0003
     21 C          62.9162   86.4991   17.7246 C.ar    1  UNL1       -0.0000
     22 C          62.8535   87.9824   17.5101 C.ar    1  UNL1       -0.0003
     23 C          63.3238   88.5733   16.2140 C.ar    1  UNL1       -0.0042
     24 C          60.6970   89.9058   10.9994 C.3     1  UNL1        0.0924
     25 C          60.3496   88.9727    9.8775 C.3     1  UNL1        0.0950
     26 N          60.2693   89.4878    8.4711 N.am    1  UNL1       -0.2706
     27 C          59.3939   88.7968    7.4681 C.2     1  UNL1        0.4020
     28 O          58.5987   87.5907    7.8715 O.2     1  UNL1       -0.2264
     29 H          60.7912   90.2795    8.2063 H       1  UNL1        0.1527
     30 O          59.3136   89.3120    6.0616 O.3     1  UNL1       -0.4274
     31 C          58.9431   90.7431    5.8071 C.3     1  UNL1        0.2621
     32 C          59.6261   91.5117    4.7149 C.ar    1  UNL1        0.1323
     33 N          58.9868   92.5364    3.8253 N.ar    1  UNL1       -0.2374
     34 C          60.0338   93.0486    2.8812 C.ar    1  UNL1        0.1062
     35 C          61.3203   92.3405    3.1873 C.ar    1  UNL1        0.0573
     36 S          61.0683   91.3907    4.3206 S.2     1  UNL1       -0.0666
     37 C          60.0825   87.5243   10.1622 C.3     1  UNL1        0.0474
     38 C          61.1902   86.5199   10.0433 C.ar    1  UNL1       -0.0205
     39 C          61.8191   86.2513    8.7083 C.ar    1  UNL1       -0.0042
     40 C          62.9268   85.2469    8.5894 C.ar    1  UNL1       -0.0003
     41 C          63.4056   84.5110    9.8057 C.ar    1  UNL1       -0.0000
     42 C          62.7767   84.7795   11.1407 C.ar    1  UNL1       -0.0003
     43 C          61.6690   85.7840   11.2596 C.ar    1  UNL1       -0.0042
@<TRIPOS>BOND
     1     2     3    1
     2     3     1    1
     3     1    24    1
     4    25    24    1
     5    25    37    1
     6    37    38    1
     7    38    39   ar
     8    39    40   ar
     9    40    41   ar
    10    41    42   ar
    11    42    43   ar
    12    25    26    1
    13    26    27   am
    14    27    28    2
    15    27    30    1
    16    30    31    1
    17    31    32    1
    18    32    33   ar
    19    33    34   ar
    20    34    35   ar
    21    35    36   ar
    22     1     4    1
    23     5     4    1
    24     5    17    1
    25    17    18    1
    26    18    19   ar
    27    19    20   ar
    28    20    21   ar
    29    21    22   ar
    30    22    23   ar
    31     5     6    1
    32     6     7   am
    33     7     8    2
    34     7    10    1
    35    10    11    1
    36    11    12    1
    37    12    13   ar
    38    13    14   ar
    39    14    15   ar
    40    15    16   ar
    41    43    38   ar
    42    36    32   ar
    43    23    18   ar
    44    16    12   ar
    45    26    29    1
    46     6     9    1
@<TRIPOS>MOLECULE
*****
 43 46 0 0 0
SMALL
GASTEIGER

@<TRIPOS>ATOM
      1 N          63.6114   86.9845   15.8880 N.3     1  UNL1       -0.2699
      2 C          62.7776   86.9667   18.3486 C.3     1  UNL1        0.0188
      3 C          62.7947   86.3567   16.9783 C.3     1  UNL1        0.0722
      4 C          64.4236   86.1221   14.9680 C.3     1  UNL1        0.0924
      5 C          63.7907   84.9411   14.2936 C.3     1  UNL1        0.0950
      6 N          62.7920   85.1514   13.1943 N.am    1  UNL1       -0.2706
      7 C          63.1013   84.6889   11.8014 C.2     1  UNL1        0.4020
      8 O          64.4093   84.0161   11.5076 O.2     1  UNL1       -0.2264
      9 H          61.9334   85.5930   13.3871 H       1  UNL1        0.1527
     10 O          62.1025   84.8992   10.7022 O.3     1  UNL1       -0.4291
     11 C          61.9950   86.2371   10.0324 C.3     1  UNL1        0.2447
     12 C          60.9205   86.4822    9.0149 C.ar    1  UNL1        0.0714
     13 C          60.7205   85.7151    7.7415 C.ar    1  UNL1        0.1053
     14 N          59.5337   86.2963    7.0317 N.ar    1  UNL1       -0.2350
     15 C          59.0002   87.4226    7.8665 C.ar    1  UNL1        0.1343
     16 S          59.8573   87.5375    9.0921 S.2     1  UNL1       -0.0652
     17 C          64.1566   83.5498   14.7184 C.3     1  UNL1        0.0474
     18 C          63.3168   82.3867   14.2805 C.ar    1  UNL1       -0.0205
     19 C          61.8804   82.2974   14.7031 C.ar    1  UNL1       -0.0042
     20 C          61.0406   81.1343   14.2652 C.ar    1  UNL1       -0.0003
     21 C          61.6373   80.0603   13.4046 C.ar    1  UNL1       -0.0000
     22 C          63.0738   80.1495   12.9820 C.ar    1  UNL1       -0.0003
     23 C          63.9135   81.3128   13.4199 C.ar    1  UNL1       -0.0042
     24 C          63.6159   88.4748   15.7178 C.3     1  UNL1        0.0924
     25 C          64.1390   89.0833   14.4505 C.3     1  UNL1        0.0950
     26 N          65.0823   90.2480   14.5114 N.am    1  UNL1       -0.2706
     27 C          64.7128   91.4722   15.2954 C.2     1  UNL1        0.4020
     28 O          63.3999   91.5318   16.0185 O.2     1  UNL1       -0.2264
     29 H          65.9440   90.2089   14.0368 H       1  UNL1        0.1527
     30 O          65.6560   92.6369   15.3563 O.3     1  UNL1       -0.4274
     31 C          66.7200   92.7958   14.3109 C.3     1  UNL1        0.2621
     32 C          66.3748   93.3768   12.9718 C.ar    1  UNL1        0.1323
     33 N          66.4031   94.8318   12.6082 N.ar    1  UNL1       -0.2374
     34 C          65.9865   94.9592   11.1728 C.ar    1  UNL1        0.1062
     35 C          65.7009   93.5828   10.6493 C.ar    1  UNL1        0.0573
     36 S          65.9409   92.6049   11.7611 S.2     1  UNL1       -0.0666
     37 C          63.7188   88.5272   13.1223 C.3     1  UNL1        0.0474
     38 C          62.7453   89.2825   12.2670 C.ar    1  UNL1       -0.0205
     39 C          63.2159   89.9595   11.0138 C.ar    1  UNL1       -0.0042
     40 C          62.2424   90.7149   10.1585 C.ar    1  UNL1       -0.0003
     41 C          60.7982   90.7934   10.5563 C.ar    1  UNL1       -0.0000
     42 C          60.3275   90.1164   11.8093 C.ar    1  UNL1       -0.0003
     43 C          61.3011   89.3610   12.6647 C.ar    1  UNL1       -0.0042
@<TRIPOS>BOND
     1     2     3    1
     2     3     1    1
     3     1    24    1
     4    25    24    1
     5    25    37    1
     6    37    38    1
     7    38    39   ar
     8    39    40   ar
     9    40    41   ar
    10    41    42   ar
    11    42    43   ar
    12    25    26    1
    13    26    27   am
    14    27    28    2
    15    27    30    1
    16    30    31    1
    17    31    32    1
    18    32    33   ar
    19    33    34   ar
    20    34    35   ar
    21    35    36   ar
    22     1     4    1
    23     5     4    1
    24     5    17    1
    25    17    18    1
    26    18    19   ar
    27    19    20   ar
    28    20    21   ar
    29    21    22   ar
    30    22    23   ar
    31     5     6    1
    32     6     7   am
    33     7     8    2
    34     7    10    1
    35    10    11    1
    36    11    12    1
    37    12    13   ar
    38    13    14   ar
    39    14    15   ar
    40    15    16   ar
    41    43    38   ar
    42    36    32   ar
    43    23    18   ar
    44    16    12   ar
    45    26    29    1
    46     6     9    1
@<TRIPOS>MOLECULE
*****
 43 46 0 0 0
SMALL
GASTEIGER

@<TRIPOS>ATOM
      1 N          62.5449   89.6600   11.8599 N.3     1  UNL1       -0.2699
      2 C          63.2353   91.3677   10.0276 C.3     1  UNL1        0.0188
      3 C          62.2340   90.8676   11.0263 C.3     1  UNL1        0.0722
      4 C          63.8559   89.5648   12.5826 C.3     1  UNL1        0.0924
      5 C          64.2624   90.6422   13.5438 C.3     1  UNL1        0.0950
      6 N          64.8967   91.9022   13.0337 N.am    1  UNL1       -0.2706
      7 C          66.3041   92.2444   13.4236 C.2     1  UNL1        0.4020
      8 O          67.0772   91.3267   14.3236 O.2     1  UNL1       -0.2264
      9 H          64.3892   92.5045   12.4430 H       1  UNL1        0.1527
     10 O          66.9383   93.5044   12.9134 O.3     1  UNL1       -0.4291
     11 C          66.1365   94.4668   12.0882 C.3     1  UNL1        0.2447
     12 C          66.6296   94.8863   10.7351 C.ar    1  UNL1        0.0714
     13 C          66.7487   96.2967   10.2384 C.ar    1  UNL1        0.1053
     14 N          67.2829   96.2512    8.8375 N.ar    1  UNL1       -0.2350
     15 C          67.4938   94.8127    8.4684 C.ar    1  UNL1        0.1343
     16 S          67.0901   93.9692    9.6412 S.2     1  UNL1       -0.0652
     17 C          64.0346   90.4597   15.0151 C.3     1  UNL1        0.0474
     18 C          63.8135   89.0859   15.5751 C.ar    1  UNL1       -0.0205
     19 C          64.4142   87.8924   14.8933 C.ar    1  UNL1       -0.0042
     20 C          64.1932   86.5186   15.4532 C.ar    1  UNL1       -0.0003
     21 C          63.3715   86.3381   16.6951 C.ar    1  UNL1       -0.0000
     22 C          62.7708   87.5315   17.3770 C.ar    1  UNL1       -0.0003
     23 C          62.9918   88.9054   16.8169 C.ar    1  UNL1       -0.0042
     24 C          61.5449   88.5475   11.9708 C.3     1  UNL1        0.0924
     25 C          61.7484   87.2765   11.2006 C.3     1  UNL1        0.0950
     26 N          62.9670   86.4373   11.4468 N.am    1  UNL1       -0.2706
     27 C          62.9266   85.3369   12.4654 C.2     1  UNL1        0.4020
     28 O          61.6675   85.0757   13.2377 O.2     1  UNL1       -0.2264
     29 H          63.7934   86.6087   10.9399 H       1  UNL1        0.1527
     30 O          64.1452   84.4977   12.7116 O.3     1  UNL1       -0.4274
     31 C          64.1435   83.4773   13.8111 C.3     1  UNL1        0.2621
     32 C          63.2179   82.2991   13.7395 C.ar    1  UNL1        0.1323
     33 N          61.9457   82.1288   14.5157 N.ar    1  UNL1       -0.2374
     34 C          61.3436   80.8088   14.1350 C.ar    1  UNL1        0.1062
     35 C          62.2437   80.1632   13.1235 C.ar    1  UNL1        0.0573
     36 S          63.4021   81.0843   12.8791 S.2     1  UNL1       -0.0666
     37 C          60.7332   86.8448   10.1841 C.3     1  UNL1        0.0474
     38 C          61.1740   86.1340    8.9390 C.ar    1  UNL1       -0.0205
     39 C          62.5808   85.6261    8.8234 C.ar    1  UNL1       -0.0042
     40 C          63.0215   84.9153    7.5783 C.ar    1  UNL1       -0.0003
     41 C          62.0557   84.7122    6.4487 C.ar    1  UNL1       -0.0000
     42 C          60.6490   85.2200    6.5643 C.ar    1  UNL1       -0.0003
     43 C          60.2081   85.9309    7.8095 C.ar    1  UNL1       -0.0042
@<TRIPOS>BOND
     1     2     3    1
     2     3     1    1
     3     1    24    1
     4    25    24    1
     5    25    37    1
     6    37    38    1
     7    38    39   ar
     8    39    40   ar
     9    40    41   ar
    10    41    42   ar
    11    42    43   ar
    12    25    26    1
    13    26    27   am
    14    27    28    2
    15    27    30    1
    16    30    31    1
    17    31    32    1
    18    32    33   ar
    19    33    34   ar
    20    34    35   ar
    21    35    36   ar
    22     1     4    1
    23     5     4    1
    24     5    17    1
    25    17    18    1
    26    18    19   ar
    27    19    20   ar
    28    20    21   ar
    29    21    22   ar
    30    22    23   ar
    31     5     6    1
    32     6     7   am
    33     7     8    2
    34     7    10    1
    35    10    11    1
    36    11    12    1
    37    12    13   ar
    38    13    14   ar
    39    14    15   ar
    40    15    16   ar
    41    43    38   ar
    42    36    32   ar
    43    23    18   ar
    44    16    12   ar
    45    26    29    1
    46     6     9    1
@<TRIPOS>MOLECULE
*****
 43 46 0 0 0
SMALL
GASTEIGER

@<TRIPOS>ATOM
      1 N          61.9636   89.9401   11.6985 N.3     1  UNL1       -0.2699
      2 C          59.4484   90.5507   11.4718 C.3     1  UNL1        0.0188
      3 C          60.5812   89.9888   12.2788 C.3     1  UNL1        0.0722
      4 C          62.4213   88.7220   10.9524 C.3     1  UNL1        0.0924
      5 C          61.4427   87.9305   10.1365 C.3     1  UNL1        0.0950
      6 N          60.8311   88.5331    8.9065 N.am    1  UNL1       -0.2706
      7 C          59.5944   87.9286    8.3106 C.2     1  UNL1        0.4020
      8 O          58.9693   86.7214    8.9445 O.2     1  UNL1       -0.2264
      9 H          61.2414   89.3255    8.4904 H       1  UNL1        0.1527
     10 O          58.9829   88.5313    7.0807 O.3     1  UNL1       -0.4291
     11 C          59.7652   89.5110    6.2570 C.3     1  UNL1        0.2447
     12 C          59.0543   90.6057    5.5180 C.ar    1  UNL1        0.0714
     13 C          57.5756   90.8573    5.5235 C.ar    1  UNL1        0.1053
     14 N          57.3047   92.0481    4.6526 N.ar    1  UNL1       -0.2350
     15 C          58.6161   92.5325    4.1087 C.ar    1  UNL1        0.1343
     16 S          59.6974   91.6410    4.6436 S.2     1  UNL1       -0.0652
     17 C          61.0756   86.5362   10.5505 C.3     1  UNL1        0.0474
     18 C          62.0580   85.4172   10.3702 C.ar    1  UNL1       -0.0205
     19 C          62.2966   84.4418   11.4845 C.ar    1  UNL1       -0.0042
     20 C          63.2790   83.3227   11.3042 C.ar    1  UNL1       -0.0003
     21 C          64.0228   83.1789   10.0095 C.ar    1  UNL1       -0.0000
     22 C          63.7842   84.1543    8.8952 C.ar    1  UNL1       -0.0003
     23 C          62.8017   85.2735    9.0755 C.ar    1  UNL1       -0.0042
     24 C          62.8882   91.1095   11.8644 C.3     1  UNL1        0.0924
     25 C          64.1497   90.9609   12.6621 C.3     1  UNL1        0.0950
     26 N          64.4070   89.6986   13.4304 N.am    1  UNL1       -0.2706
     27 C          63.7115   89.4616   14.7382 C.2     1  UNL1        0.4020
     28 O          62.7588   90.4870   15.2776 O.2     1  UNL1       -0.2264
     29 H          65.0323   89.0256   13.0764 H       1  UNL1        0.1527
     30 O          63.9688   88.1993   15.5065 O.3     1  UNL1       -0.4274
     31 C          64.6570   87.0440   14.8421 C.3     1  UNL1        0.2621
     32 C          64.0936   85.6598   14.9722 C.ar    1  UNL1        0.1323
     33 N          62.7828   85.2974   15.6051 N.ar    1  UNL1       -0.2374
     34 C          62.6212   83.8088   15.5163 C.ar    1  UNL1        0.1062
     35 C          63.8320   83.2512   14.8285 C.ar    1  UNL1        0.0573
     36 S          64.7420   84.3953   14.4922 S.2     1  UNL1       -0.0666
     37 C          65.1541   92.0747   12.6915 C.3     1  UNL1        0.0474
     38 C          66.1442   92.1624   13.8149 C.ar    1  UNL1       -0.0205
     39 C          67.5979   91.8989   13.5556 C.ar    1  UNL1       -0.0042
     40 C          68.5880   91.9865   14.6790 C.ar    1  UNL1       -0.0003
     41 C          68.1244   92.3377   16.0617 C.ar    1  UNL1       -0.0000
     42 C          66.6707   92.6012   16.3210 C.ar    1  UNL1       -0.0003
     43 C          65.6805   92.5136   15.1976 C.ar    1  UNL1       -0.0042
@<TRIPOS>BOND
     1     2     3    1
     2     3     1    1
     3     1    24    1
     4    25    24    1
     5    25    37    1
     6    37    38    1
     7    38    39   ar
     8    39    40   ar
     9    40    41   ar
    10    41    42   ar
    11    42    43   ar
    12    25    26    1
    13    26    27   am
    14    27    28    2
    15    27    30    1
    16    30    31    1
    17    31    32    1
    18    32    33   ar
    19    33    34   ar
    20    34    35   ar
    21    35    36   ar
    22     1     4    1
    23     5     4    1
    24     5    17    1
    25    17    18    1
    26    18    19   ar
    27    19    20   ar
    28    20    21   ar
    29    21    22   ar
    30    22    23   ar
    31     5     6    1
    32     6     7   am
    33     7     8    2
    34     7    10    1
    35    10    11    1
    36    11    12    1
    37    12    13   ar
    38    13    14   ar
    39    14    15   ar
    40    15    16   ar
    41    43    38   ar
    42    36    32   ar
    43    23    18   ar
    44    16    12   ar
    45    26    29    1
    46     6     9    1
@<TRIPOS>MOLECULE
*****
 43 46 0 0 0
SMALL
GASTEIGER

@<TRIPOS>ATOM
      1 N          60.7317   89.8985   11.7752 N.3     1  UNL1       -0.2699
      2 C          58.5530   89.0362   12.8975 C.3     1  UNL1        0.0188
      3 C          59.2413   89.9565   11.9334 C.3     1  UNL1        0.0722
      4 C          61.3356   89.7406   10.4112 C.3     1  UNL1        0.0924
      5 C          60.6151   88.9512    9.3588 C.3     1  UNL1        0.0950
      6 N          60.2728   89.5895    8.0452 N.am    1  UNL1       -0.2706
      7 C          59.2644   88.9473    7.1394 C.2     1  UNL1        0.4020
      8 O          58.5982   87.6667    7.5470 O.2     1  UNL1       -0.2264
      9 H          60.7101   90.4300    7.7776 H       1  UNL1        0.1527
     10 O          58.9222   89.5857    5.8259 O.3     1  UNL1       -0.4291
     11 C          59.0000   91.0759    5.6733 C.3     1  UNL1        0.2447
     12 C          59.8584   91.6761    4.5996 C.ar    1  UNL1        0.0714
     13 C          61.3031   91.3614    4.3468 C.ar    1  UNL1        0.1053
     14 N          61.7603   92.1872    3.1811 N.ar    1  UNL1       -0.2350
     15 C          60.5981   93.0123    2.7133 C.ar    1  UNL1        0.1343
     16 S          59.4227   92.6964    3.5900 S.2     1  UNL1       -0.0652
     17 C          60.2368   87.5233    9.6199 C.3     1  UNL1        0.0474
     18 C          61.3033   86.4767    9.7503 C.ar    1  UNL1       -0.0205
     19 C          62.0994   86.0632    8.5481 C.ar    1  UNL1       -0.0042
     20 C          63.1659   85.0166    8.6785 C.ar    1  UNL1       -0.0003
     21 C          63.4364   84.3834   10.0112 C.ar    1  UNL1       -0.0000
     22 C          62.6404   84.7969   11.2134 C.ar    1  UNL1       -0.0003
     23 C          61.5738   85.8436   11.0829 C.ar    1  UNL1       -0.0042
     24 C          61.6184   89.9983   12.9809 C.3     1  UNL1        0.0924
     25 C          63.1085   89.9291   12.8239 C.3     1  UNL1        0.0950
     26 N          63.8285   88.6349   13.0620 N.am    1  UNL1       -0.2706
     27 C          64.0120   88.1251   14.4607 C.2     1  UNL1        0.4020
     28 O          63.4756   88.9094   15.6213 O.2     1  UNL1       -0.2264
     29 H          64.1805   88.1201   12.3003 H       1  UNL1        0.1527
     30 O          64.7320   86.8309   14.6988 O.3     1  UNL1       -0.4274
     31 C          64.1401   85.8008   15.6146 C.3     1  UNL1        0.2621
     32 C          63.6976   84.4762   15.0671 C.ar    1  UNL1        0.1323
     33 N          64.5131   83.5639   14.1996 N.ar    1  UNL1       -0.2374
     34 C          63.6815   82.3552   13.8873 C.ar    1  UNL1        0.1062
     35 C          62.3519   82.5206   14.5619 C.ar    1  UNL1        0.0573
     36 S          62.3619   83.8314   15.2910 S.2     1  UNL1       -0.0666
     37 C          63.8787   91.1541   12.4288 C.3     1  UNL1        0.0474
     38 C          65.1183   91.5361   13.1820 C.ar    1  UNL1       -0.0205
     39 C          66.3741   91.8775   12.4360 C.ar    1  UNL1       -0.0042
     40 C          67.6137   92.2594   13.1892 C.ar    1  UNL1       -0.0003
     41 C          67.5976   92.3000   14.6886 C.ar    1  UNL1       -0.0000
     42 C          66.3419   91.9587   15.4347 C.ar    1  UNL1       -0.0003
     43 C          65.1022   91.5767   14.6814 C.ar    1  UNL1       -0.0042
@<TRIPOS>BOND
     1     2     3    1
     2     3     1    1
     3     1    24    1
     4    25    24    1
     5    25    37    1
     6    37    38    1
     7    38    39   ar
     8    39    40   ar
     9    40    41   ar
    10    41    42   ar
    11    42    43   ar
    12    25    26    1
    13    26    27   am
    14    27    28    2
    15    27    30    1
    16    30    31    1
    17    31    32    1
    18    32    33   ar
    19    33    34   ar
    20    34    35   ar
    21    35    36   ar
    22     1     4    1
    23     5     4    1
    24     5    17    1
    25    17    18    1
    26    18    19   ar
    27    19    20   ar
    28    20    21   ar
    29    21    22   ar
    30    22    23   ar
    31     5     6    1
    32     6     7   am
    33     7     8    2
    34     7    10    1
    35    10    11    1
    36    11    12    1
    37    12    13   ar
    38    13    14   ar
    39    14    15   ar
    40    15    16   ar
    41    43    38   ar
    42    36    32   ar
    43    23    18   ar
    44    16    12   ar
    45    26    29    1
    46     6     9    1
