@<TRIPOS>MOLECULE
*****
 29 32 0 0 0
SMALL
GASTEIGER

@<TRIPOS>ATOM
      1 C          62.3259   87.1201   11.3100 C.ar    1  UNL1        0.0712
      2 C          63.1761   88.1664   11.9677 C.ar    1  UNL1        0.0073
      3 C          63.0843   89.5959   11.5227 C.ar    1  UNL1        0.0422
      4 C          62.1424   89.9792   10.4201 C.ar    1  UNL1        0.0028
      5 C          61.2922   88.9329    9.7624 C.ar    1  UNL1        0.0177
      6 C          60.3502   89.3162    8.6598 C.ar    1  UNL1        0.0031
      7 C          59.5000   88.2700    8.0022 C.ar    1  UNL1        0.0207
      8 C          59.5918   86.8405    8.4471 C.ar    1  UNL1        0.0988
      9 N          60.5337   86.4572    9.5497 N.ar    1  UNL1       -0.2437
     10 C          61.3839   87.5034   10.2074 C.ar    1  UNL1        0.0856
     11 N          62.8360   84.6278   10.7827 N.am    1  UNL1       -0.2606
     12 C          62.4177   85.6906   11.7550 C.2     1  UNL1        0.2524
     13 O          62.0911   85.3238   13.1724 O.2     1  UNL1       -0.2697
     14 H          63.0503   84.8685    9.8524 H       1  UNL1        0.1571
     15 C          62.3405   80.2169   13.6426 C.3     1  UNL1        0.0527
     16 C          62.7000   81.1708   12.5422 C.ar    1  UNL1        0.0678
     17 C          63.4379   80.8260   11.2825 C.ar    1  UNL1        0.0528
     18 S          63.5786   82.0791   10.4701 S.2     1  UNL1       -0.0512
     19 C          62.9277   83.1983   11.2276 C.ar    1  UNL1        0.1654
     20 N          62.3848   82.6369   12.5082 N.ar    1  UNL1       -0.2283
     21 C          63.9346   90.6422   12.1804 C.3     1  UNL1        0.3042
     22 F          64.2498   89.6867   13.2929 F       1  UNL1       -0.1947
     23 F          63.6193   91.5976   11.0679 F       1  UNL1       -0.1947
     24 C          64.7848   91.6884   12.8380 C.ar    1  UNL1        0.0801
     25 C          65.0242   91.6388   14.3179 C.ar    1  UNL1        0.1035
     26 N          65.8744   92.6851   14.9756 N.ar    1  UNL1       -0.2226
     27 C          66.4852   93.7809   14.1534 C.ar    1  UNL1        0.1989
     28 N          66.2458   93.8304   12.6734 N.ar    1  UNL1       -0.2226
     29 C          65.3956   92.7842   12.0157 C.ar    1  UNL1        0.1035
@<TRIPOS>BOND
     1    15    16    1
     2    16    17   ar
     3    17    18   ar
     4    18    19   ar
     5    19    11    1
     6    11    12   am
     7    12    13    2
     8    12     1    1
     9     1     2   ar
    10     2     3   ar
    11     3    21    1
    12    21    22    1
    13    21    23    1
    14    21    24    1
    15    24    25   ar
    16    25    26   ar
    17    26    27   ar
    18    27    28   ar
    19    28    29   ar
    20     3     4   ar
    21     4     5   ar
    22     5     6   ar
    23     6     7   ar
    24     7     8   ar
    25     8     9   ar
    26     9    10   ar
    27    19    20   ar
    28    20    16   ar
    29    10     1   ar
    30    29    24   ar
    31    10     5   ar
    32    11    14    1
@<TRIPOS>MOLECULE
*****
 29 32 0 0 0
SMALL
GASTEIGER

@<TRIPOS>ATOM
      1 C          62.9223   87.3662   12.2547 C.ar    1  UNL1        0.0712
      2 C          63.8471   88.2725   13.0119 C.ar    1  UNL1        0.0073
      3 C          63.8197   89.7512   12.7612 C.ar    1  UNL1        0.0422
      4 C          62.8675   90.3235   11.7534 C.ar    1  UNL1        0.0028
      5 C          61.9427   89.4172   10.9961 C.ar    1  UNL1        0.0177
      6 C          60.9906   89.9896    9.9883 C.ar    1  UNL1        0.0031
      7 C          60.0658   89.0833    9.2311 C.ar    1  UNL1        0.0207
      8 C          60.0932   87.6046    9.4817 C.ar    1  UNL1        0.0988
      9 N          61.0453   87.0323   10.4896 N.ar    1  UNL1       -0.2437
     10 C          61.9701   87.9386   11.2468 C.ar    1  UNL1        0.0856
     11 N          62.9077   84.9303   11.3512 N.am    1  UNL1       -0.2606
     12 C          62.9497   85.8876   12.5053 C.2     1  UNL1        0.2524
     13 O          63.0190   85.3661   13.9101 O.2     1  UNL1       -0.2697
     14 H          62.8622   85.2726   10.4293 H       1  UNL1        0.1571
     15 C          62.1247   80.1944   13.5510 C.3     1  UNL1        0.0527
     16 C          62.5752   81.2748   12.6130 C.ar    1  UNL1        0.0678
     17 C          63.3793   81.0777   11.3621 C.ar    1  UNL1        0.0528
     18 S          63.6017   82.4230   10.7373 S.2     1  UNL1       -0.0512
     19 C          62.9351   83.4517   11.6019 C.ar    1  UNL1        0.1654
     20 N          62.3007   82.7420   12.7611 N.ar    1  UNL1       -0.2283
     21 C          64.7445   90.6575   13.5185 C.3     1  UNL1        0.3042
     22 F          64.9796   89.5737   14.5285 F       1  UNL1       -0.1947
     23 F          64.5094   91.7412   12.5085 F       1  UNL1       -0.1947
     24 C          65.6693   91.5638   14.2757 C.ar    1  UNL1        0.0801
     25 C          65.3695   91.9195   15.7017 C.ar    1  UNL1        0.1035
     26 N          66.2943   92.8258   16.4590 N.ar    1  UNL1       -0.2226
     27 C          67.5188   93.3764   15.7902 C.ar    1  UNL1        0.1989
     28 N          67.8186   93.0207   14.3641 N.ar    1  UNL1       -0.2226
     29 C          66.8938   92.1144   13.6069 C.ar    1  UNL1        0.1035
@<TRIPOS>BOND
     1    15    16    1
     2    16    17   ar
     3    17    18   ar
     4    18    19   ar
     5    19    11    1
     6    11    12   am
     7    12    13    2
     8    12     1    1
     9     1     2   ar
    10     2     3   ar
    11     3    21    1
    12    21    22    1
    13    21    23    1
    14    21    24    1
    15    24    25   ar
    16    25    26   ar
    17    26    27   ar
    18    27    28   ar
    19    28    29   ar
    20     3     4   ar
    21     4     5   ar
    22     5     6   ar
    23     6     7   ar
    24     7     8   ar
    25     8     9   ar
    26     9    10   ar
    27    19    20   ar
    28    20    16   ar
    29    10     1   ar
    30    29    24   ar
    31    10     5   ar
    32    11    14    1
@<TRIPOS>MOLECULE
*****
 29 32 0 0 0
SMALL
GASTEIGER

@<TRIPOS>ATOM
      1 C          63.4945   88.2182   13.0608 C.ar    1  UNL1        0.0712
      2 C          63.4571   86.7383   13.3026 C.ar    1  UNL1        0.0073
      3 C          62.7439   85.8385   12.3373 C.ar    1  UNL1        0.0422
      4 C          62.0683   86.4185   11.1303 C.ar    1  UNL1        0.0028
      5 C          62.1058   87.8985   10.8884 C.ar    1  UNL1        0.0177
      6 C          61.4301   88.4785    9.6814 C.ar    1  UNL1        0.0031
      7 C          61.4676   89.9584    9.4396 C.ar    1  UNL1        0.0207
      8 C          62.1808   90.8582   10.4048 C.ar    1  UNL1        0.0988
      9 N          62.8564   90.2782   11.6119 N.ar    1  UNL1       -0.2437
     10 C          62.8189   88.7983   11.8537 C.ar    1  UNL1        0.0856
     11 N          65.0314   90.2630   13.5157 N.am    1  UNL1       -0.2606
     12 C          64.2077   89.1180   14.0261 C.2     1  UNL1        0.2524
     13 O          64.0970   88.8729   15.5018 O.2     1  UNL1       -0.2697
     14 H          65.1040   90.4239   12.5471 H       1  UNL1        0.1571
     15 C          68.8387   92.9276   16.0226 C.3     1  UNL1        0.0527
     16 C          67.4946   92.3876   15.6333 C.ar    1  UNL1        0.0678
     17 C          66.1892   92.7075   16.2994 C.ar    1  UNL1        0.0528
     18 S          65.1076   91.9505   15.5872 S.2     1  UNL1       -0.0512
     19 C          65.7445   91.1628   14.4809 C.ar    1  UNL1        0.1654
     20 N          67.2197   91.4330   14.5094 N.ar    1  UNL1       -0.2283
     21 C          62.7065   84.3585   12.5792 C.3     1  UNL1        0.3042
     22 F          62.4956   84.1242   11.1127 F       1  UNL1       -0.1947
     23 F          62.9174   84.5929   14.0456 F       1  UNL1       -0.1947
     24 C          62.6690   82.8787   12.8211 C.ar    1  UNL1        0.0801
     25 C          62.9136   81.9271   11.6877 C.ar    1  UNL1        0.1035
     26 N          62.8761   80.4471   11.9295 N.ar    1  UNL1       -0.2226
     27 C          62.5941   79.9188   13.3048 C.ar    1  UNL1        0.1989
     28 N          62.3495   80.8705   14.4382 N.ar    1  UNL1       -0.2226
     29 C          62.3870   82.3504   14.1963 C.ar    1  UNL1        0.1035
@<TRIPOS>BOND
     1    15    16    1
     2    16    17   ar
     3    17    18   ar
     4    18    19   ar
     5    19    11    1
     6    11    12   am
     7    12    13    2
     8    12     1    1
     9     1     2   ar
    10     2     3   ar
    11     3    21    1
    12    21    22    1
    13    21    23    1
    14    21    24    1
    15    24    25   ar
    16    25    26   ar
    17    26    27   ar
    18    27    28   ar
    19    28    29   ar
    20     3     4   ar
    21     4     5   ar
    22     5     6   ar
    23     6     7   ar
    24     7     8   ar
    25     8     9   ar
    26     9    10   ar
    27    19    20   ar
    28    20    16   ar
    29    10     1   ar
    30    29    24   ar
    31    10     5   ar
    32    11    14    1
@<TRIPOS>MOLECULE
*****
 29 32 0 0 0
SMALL
GASTEIGER

@<TRIPOS>ATOM
      1 C          63.5154   90.0627   12.2530 C.ar    1  UNL1        0.0712
      2 C          64.1978   91.1342   11.4554 C.ar    1  UNL1        0.0073
      3 C          64.9231   92.2442   12.1567 C.ar    1  UNL1        0.0422
      4 C          64.9661   92.2827   13.6555 C.ar    1  UNL1        0.0028
      5 C          64.2837   91.2111   14.4532 C.ar    1  UNL1        0.0177
      6 C          64.3268   91.2496   15.9520 C.ar    1  UNL1        0.0031
      7 C          63.6444   90.1780   16.7496 C.ar    1  UNL1        0.0207
      8 C          62.9190   89.0680   16.0483 C.ar    1  UNL1        0.0988
      9 N          62.8760   89.0296   14.5495 N.ar    1  UNL1       -0.2437
     10 C          63.5584   90.1011   13.7519 C.ar    1  UNL1        0.0856
     11 N          62.1189   89.2096   10.2351 N.am    1  UNL1       -0.2606
     12 C          62.7900   88.9527   11.5517 C.2     1  UNL1        0.2524
     13 O          62.7359   87.5858   12.1671 O.2     1  UNL1       -0.2697
     14 H          62.1544   90.1068    9.8312 H       1  UNL1        0.1571
     15 C          61.1098   84.9277    7.3148 C.3     1  UNL1        0.0527
     16 C          60.9297   86.1314    8.1915 C.ar    1  UNL1        0.0678
     17 C          59.6249   86.6516    8.7177 C.ar    1  UNL1        0.0528
     18 S          59.9116   87.8680    9.5473 S.2     1  UNL1       -0.0512
     19 C          61.3935   88.0996    9.5338 C.ar    1  UNL1        0.1654
     20 N          62.0227   87.0264    8.6959 N.ar    1  UNL1       -0.2283
     21 C          65.6055   93.3158   11.3590 C.3     1  UNL1        0.3042
     22 F          65.1890   92.6355   10.0887 F       1  UNL1       -0.1947
     23 F          66.0220   93.9961   12.6293 F       1  UNL1       -0.1947
     24 C          66.2878   94.3873   10.5614 C.ar    1  UNL1        0.0801
     25 C          66.3796   95.7826   11.1042 C.ar    1  UNL1        0.1035
     26 N          67.0620   96.8543   10.3066 N.ar    1  UNL1       -0.2226
     27 C          67.6526   96.5305    8.9663 C.ar    1  UNL1        0.1989
     28 N          67.5607   95.1351    8.4235 N.ar    1  UNL1       -0.2226
     29 C          66.8784   94.0635    9.2211 C.ar    1  UNL1        0.1035
@<TRIPOS>BOND
     1    15    16    1
     2    16    17   ar
     3    17    18   ar
     4    18    19   ar
     5    19    11    1
     6    11    12   am
     7    12    13    2
     8    12     1    1
     9     1     2   ar
    10     2     3   ar
    11     3    21    1
    12    21    22    1
    13    21    23    1
    14    21    24    1
    15    24    25   ar
    16    25    26   ar
    17    26    27   ar
    18    27    28   ar
    19    28    29   ar
    20     3     4   ar
    21     4     5   ar
    22     5     6   ar
    23     6     7   ar
    24     7     8   ar
    25     8     9   ar
    26     9    10   ar
    27    19    20   ar
    28    20    16   ar
    29    10     1   ar
    30    29    24   ar
    31    10     5   ar
    32    11    14    1
@<TRIPOS>MOLECULE
*****
 29 32 0 0 0
SMALL
GASTEIGER

@<TRIPOS>ATOM
      1 C          63.6181   87.7894   13.4398 C.ar    1  UNL1        0.0712
      2 C          62.7517   88.1703   12.2762 C.ar    1  UNL1        0.0073
      3 C          62.1614   87.1052   11.4002 C.ar    1  UNL1        0.0422
      4 C          62.4375   85.6592   11.6880 C.ar    1  UNL1        0.0028
      5 C          63.3040   85.2783   12.8517 C.ar    1  UNL1        0.0177
      6 C          63.5801   83.8323   13.1395 C.ar    1  UNL1        0.0031
      7 C          64.4465   83.4514   14.3032 C.ar    1  UNL1        0.0207
      8 C          65.0368   84.5164   15.1791 C.ar    1  UNL1        0.0988
      9 N          64.7607   85.9624   14.8913 N.ar    1  UNL1       -0.2437
     10 C          63.8943   86.3433   13.7276 C.ar    1  UNL1        0.0856
     11 N          65.0119   89.9655   13.7076 N.am    1  UNL1       -0.2606
     12 C          64.2083   88.8544   14.3157 C.2     1  UNL1        0.2524
     13 O          63.9951   88.8084   15.7998 O.2     1  UNL1       -0.2697
     14 H          65.1518   89.9957   12.7336 H       1  UNL1        0.1571
     15 C          68.4308   93.3378   15.9030 C.3     1  UNL1        0.0527
     16 C          67.1736   92.5806   15.5927 C.ar    1  UNL1        0.0678
     17 C          65.8473   92.7584   16.2703 C.ar    1  UNL1        0.0528
     18 S          64.8761   91.8004   15.6466 S.2     1  UNL1       -0.0512
     19 C          65.6021   91.0305   14.5836 C.ar    1  UNL1        0.1654
     20 N          67.0221   91.5128   14.5502 N.ar    1  UNL1       -0.2283
     21 C          61.2949   87.4862   10.2365 C.3     1  UNL1        0.3042
     22 F          60.0969   87.5167   11.1385 F       1  UNL1       -0.1947
     23 F          62.4930   87.4557    9.3345 F       1  UNL1       -0.1947
     24 C          60.4286   87.8672    9.0728 C.ar    1  UNL1        0.0801
     25 C          59.5404   86.8423    8.4319 C.ar    1  UNL1        0.1035
     26 N          58.6739   87.2233    7.2681 N.ar    1  UNL1       -0.2226
     27 C          58.6958   88.6291    6.7454 C.ar    1  UNL1        0.1989
     28 N          59.5841   89.6539    7.3863 N.ar    1  UNL1       -0.2226
     29 C          60.4504   89.2729    8.5500 C.ar    1  UNL1        0.1035
@<TRIPOS>BOND
     1    15    16    1
     2    16    17   ar
     3    17    18   ar
     4    18    19   ar
     5    19    11    1
     6    11    12   am
     7    12    13    2
     8    12     1    1
     9     1     2   ar
    10     2     3   ar
    11     3    21    1
    12    21    22    1
    13    21    23    1
    14    21    24    1
    15    24    25   ar
    16    25    26   ar
    17    26    27   ar
    18    27    28   ar
    19    28    29   ar
    20     3     4   ar
    21     4     5   ar
    22     5     6   ar
    23     6     7   ar
    24     7     8   ar
    25     8     9   ar
    26     9    10   ar
    27    19    20   ar
    28    20    16   ar
    29    10     1   ar
    30    29    24   ar
    31    10     5   ar
    32    11    14    1
@<TRIPOS>MOLECULE
*****
 29 32 0 0 0
SMALL
GASTEIGER

@<TRIPOS>ATOM
      1 C          62.5585   88.2888   11.4243 C.ar    1  UNL1        0.0712
      2 C          62.8720   86.9622   12.0501 C.ar    1  UNL1        0.0073
      3 C          62.1925   85.7200   11.5550 C.ar    1  UNL1        0.0422
      4 C          61.1993   85.8044   10.4341 C.ar    1  UNL1        0.0028
      5 C          60.8857   87.1311    9.8082 C.ar    1  UNL1        0.0177
      6 C          59.8926   87.2155    8.6873 C.ar    1  UNL1        0.0031
      7 C          59.5790   88.5421    8.0614 C.ar    1  UNL1        0.0207
      8 C          60.2586   89.7843    8.5565 C.ar    1  UNL1        0.0988
      9 N          61.2517   89.6999    9.6775 N.ar    1  UNL1       -0.2437
     10 C          61.5653   88.3733   10.3033 C.ar    1  UNL1        0.0856
     11 N          64.1822   89.4566   13.0825 N.am    1  UNL1       -0.2606
     12 C          63.2380   89.5310   11.9194 C.2     1  UNL1        0.2524
     13 O          62.9734   90.8477   11.2512 O.2     1  UNL1       -0.2697
     14 H          64.3558   88.5924   13.5210 H       1  UNL1        0.1571
     15 C          66.6524   92.9246   16.2053 C.3     1  UNL1        0.0527
     16 C          65.9972   92.2929   15.0130 C.ar    1  UNL1        0.0678
     17 C          65.8178   92.9279   13.6660 C.ar    1  UNL1        0.0528
     18 S          65.1160   91.9427   12.7789 S.2     1  UNL1       -0.0512
     19 C          64.8617   90.6988   13.5776 C.ar    1  UNL1        0.1654
     20 N          65.4063   90.9152   14.9584 N.ar    1  UNL1       -0.2283
     21 C          62.5061   84.3933   12.1809 C.3     1  UNL1        0.3042
     22 F          62.7505   83.8095   10.8210 F       1  UNL1       -0.1947
     23 F          62.2617   84.9772   13.5408 F       1  UNL1       -0.1947
     24 C          62.8197   83.0668   12.8068 C.ar    1  UNL1        0.0801
     25 C          64.0150   82.2851   12.3485 C.ar    1  UNL1        0.1035
     26 N          64.3287   80.9584   12.9744 N.ar    1  UNL1       -0.2226
     27 C          63.4470   80.4135   14.0587 C.ar    1  UNL1        0.1989
     28 N          62.2516   81.1953   14.5170 N.ar    1  UNL1       -0.2226
     29 C          61.9380   82.5219   13.8911 C.ar    1  UNL1        0.1035
@<TRIPOS>BOND
     1    15    16    1
     2    16    17   ar
     3    17    18   ar
     4    18    19   ar
     5    19    11    1
     6    11    12   am
     7    12    13    2
     8    12     1    1
     9     1     2   ar
    10     2     3   ar
    11     3    21    1
    12    21    22    1
    13    21    23    1
    14    21    24    1
    15    24    25   ar
    16    25    26   ar
    17    26    27   ar
    18    27    28   ar
    19    28    29   ar
    20     3     4   ar
    21     4     5   ar
    22     5     6   ar
    23     6     7   ar
    24     7     8   ar
    25     8     9   ar
    26     9    10   ar
    27    19    20   ar
    28    20    16   ar
    29    10     1   ar
    30    29    24   ar
    31    10     5   ar
    32    11    14    1
