@<TRIPOS>MOLECULE
*****
 56 60 0 0 0
SMALL
GASTEIGER

@<TRIPOS>ATOM
      1 C          62.3603   87.9583   11.1998 C.3     1  UNL1        0.0760
      2 C          60.6126   88.4369    9.3379 C.2     1  UNL1        0.2407
      3 O          59.8526   89.3235   10.2792 O.2     1  UNL1       -0.2733
      4 N          61.8665   87.7542    9.7982 N.am    1  UNL1       -0.3043
      5 H          62.3653   87.1722    9.1803 H       1  UNL1        0.1494
      6 C          60.1188   88.2328    7.9363 C.3     1  UNL1        0.1556
      7 N          58.7922   91.0038    5.4241 N.am    1  UNL1       -0.2567
      8 C          57.4938   91.4781    4.8414 C.3     1  UNL1        0.1168
      9 C          58.8063   89.8554    6.3889 C.2     1  UNL1        0.3046
     10 O          57.5220   89.1812    6.7711 O.2     1  UNL1       -0.2526
     11 N          60.1046   89.3813    6.9714 N.am    1  UNL1       -0.2821
     12 H          60.9475   89.8238    6.7205 H       1  UNL1        0.1514
     13 C          60.0764   91.6781    5.0418 C.3     1  UNL1        0.1413
     14 C          59.7871   93.2084    1.4865 C.ar    1  UNL1        0.0875
     15 N          59.1649   92.7731    2.7801 N.ar    1  UNL1       -0.2453
     16 C          60.2524   92.2261    3.6566 C.ar    1  UNL1        0.0858
     17 C          61.5467   92.3233    2.9047 C.ar    1  UNL1        0.0530
     18 S          61.2591   92.9304    1.5635 S.2     1  UNL1       -0.0705
     19 C          58.2574   92.9449   -0.5969 C.3     1  UNL1        0.0069
     20 C          59.0642   93.8151    0.3206 C.3     1  UNL1        0.0465
     21 C          59.1482   95.2920    0.0722 C.3     1  UNL1        0.0069
     22 C          59.6391   86.8804    7.4995 C.3     1  UNL1        0.0742
     23 C          60.6276   85.8351    7.0748 C.ar    1  UNL1        0.0563
     24 C          62.0100   85.6525    7.6277 C.ar    1  UNL1        0.1131
     25 N          62.6441   84.4935    6.9173 N.ar    1  UNL1       -0.2229
     26 C          61.6536   83.9599    5.9252 C.ar    1  UNL1        0.1748
     27 N          60.4074   84.7890    6.0226 N.ar    1  UNL1       -0.3381
     28 H          59.5886   84.6679    5.4895 H       1  UNL1        0.1672
     29 C          63.1060   89.2096   11.5575 C.3     1  UNL1        0.0216
     30 C          62.7706   89.9476   12.8195 C.3     1  UNL1        0.0217
     31 C          63.8407   90.6962   13.5576 C.3     1  UNL1        0.0792
     32 N          64.6418   91.7498   12.8517 N.am    1  UNL1       -0.2720
     33 C          66.0565   92.0220   13.2698 C.2     1  UNL1        0.4019
     34 O          66.6700   91.2406   14.3936 O.2     1  UNL1       -0.2264
     35 H          64.2391   92.2627   12.1141 H       1  UNL1        0.1527
     36 O          66.8576   93.0756   12.5640 O.3     1  UNL1       -0.4291
     37 C          66.1654   94.2483   11.9350 C.3     1  UNL1        0.2447
     38 C          66.6484   94.7882   10.6215 C.ar    1  UNL1        0.0714
     39 C          67.2262   93.9825    9.4959 C.ar    1  UNL1        0.1053
     40 N          67.5733   94.9249    8.3817 N.ar    1  UNL1       -0.2350
     41 C          67.2099   96.3131    8.8187 C.ar    1  UNL1        0.1343
     42 S          66.6383   96.2285   10.2029 S.2     1  UNL1       -0.0652
     43 C          64.1096   90.3912   15.0014 C.3     1  UNL1        0.0460
     44 C          63.8898   89.0042   15.5285 C.ar    1  UNL1       -0.0205
     45 C          64.4954   87.8283   14.8211 C.ar    1  UNL1       -0.0042
     46 C          64.2755   86.4413   15.3482 C.ar    1  UNL1       -0.0003
     47 C          63.4501   86.2302   16.5828 C.ar    1  UNL1       -0.0000
     48 C          62.8446   87.4061   17.2902 C.ar    1  UNL1       -0.0003
     49 C          63.0644   88.7931   16.7631 C.ar    1  UNL1       -0.0042
     50 C          62.1083   86.9109   12.2437 C.3     1  UNL1        0.0459
     51 C          62.6001   85.5094   12.0340 C.ar    1  UNL1       -0.0205
     52 C          63.0075   85.0547   10.6639 C.ar    1  UNL1       -0.0042
     53 C          63.4993   83.6532   10.4542 C.ar    1  UNL1       -0.0003
     54 C          63.5837   82.7064   11.6145 C.ar    1  UNL1       -0.0000
     55 C          63.1762   83.1612   12.9847 C.ar    1  UNL1       -0.0003
     56 C          62.6845   84.5626   13.1944 C.ar    1  UNL1       -0.0042
@<TRIPOS>BOND
     1    19    20    1
     2    20    21    1
     3    20    14    1
     4    14    15   ar
     5    15    16   ar
     6    16    13    1
     7    13     7    1
     8     7     8    1
     9     7     9   am
    10     9    10    2
    11     9    11   am
    12    11     6    1
    13     6    22    1
    14    22    23    1
    15    23    24   ar
    16    24    25   ar
    17    25    26   ar
    18    26    27   ar
    19     6     2    1
    20     2     3    2
    21     2     4   am
    22     4     1    1
    23     1    29    1
    24    29    30    1
    25    31    30    1
    26    31    43    1
    27    43    44    1
    28    44    45   ar
    29    45    46   ar
    30    46    47   ar
    31    47    48   ar
    32    48    49   ar
    33    31    32    1
    34    32    33   am
    35    33    34    2
    36    33    36    1
    37    36    37    1
    38    37    38    1
    39    38    39   ar
    40    39    40   ar
    41    40    41   ar
    42    41    42   ar
    43     1    50    1
    44    50    51    1
    45    51    52   ar
    46    52    53   ar
    47    53    54   ar
    48    54    55   ar
    49    55    56   ar
    50    16    17   ar
    51    17    18   ar
    52    18    14   ar
    53    27    23   ar
    54    49    44   ar
    55    42    38   ar
    56    56    51   ar
    57    11    12    1
    58    27    28    1
    59     4     5    1
    60    32    35    1
@<TRIPOS>MOLECULE
*****
 56 60 0 0 0
SMALL
GASTEIGER

@<TRIPOS>ATOM
      1 C          62.3288   87.1313   11.6965 C.3     1  UNL1        0.0760
      2 C          62.9955   89.0516   13.3146 C.2     1  UNL1        0.2407
      3 O          61.7514   89.8004   12.9386 O.2     1  UNL1       -0.2733
      4 N          63.2843   87.7170   12.6936 N.am    1  UNL1       -0.3043
      5 H          64.1008   87.2255   12.9403 H       1  UNL1        0.1494
      6 C          63.9510   89.6373   14.3117 C.3     1  UNL1        0.1556
      7 N          66.7206   92.4728   14.1148 N.am    1  UNL1       -0.2567
      8 C          67.1343   93.7075   14.8594 C.3     1  UNL1        0.1168
      9 C          65.5426   91.6724   14.5856 C.2     1  UNL1        0.3046
     10 O          64.7783   92.1066   15.8010 O.2     1  UNL1       -0.2526
     11 N          65.1290   90.4377   13.8409 N.am    1  UNL1       -0.2821
     12 H          65.6307   90.1527   13.0432 H       1  UNL1        0.1514
     13 C          67.4850   92.0385   12.8994 C.3     1  UNL1        0.1413
     14 C          66.9014   94.6053   10.0469 C.ar    1  UNL1        0.0875
     15 N          66.7939   94.2003   11.4871 N.ar    1  UNL1       -0.2453
     16 C          67.3845   92.8287   11.6283 C.ar    1  UNL1        0.0858
     17 C          67.8569   92.3859   10.2752 C.ar    1  UNL1        0.0530
     18 S          67.5583   93.4839    9.2978 S.2     1  UNL1       -0.0705
     19 C          67.1158   96.4669    8.2473 C.3     1  UNL1        0.0069
     20 C          66.4339   95.9036    9.4588 C.3     1  UNL1        0.0465
     21 C          65.2846   96.6387   10.0823 C.3     1  UNL1        0.0069
     22 C          63.7284   89.4225   15.7794 C.3     1  UNL1        0.0742
     23 C          63.4256   88.0483   16.2989 C.ar    1  UNL1        0.0563
     24 C          64.0677   86.7719   15.8425 C.ar    1  UNL1        0.1131
     25 N          63.4665   85.6439   16.6275 N.ar    1  UNL1       -0.2229
     26 C          62.4528   86.2233   17.5692 C.ar    1  UNL1        0.1748
     27 N          62.4275   87.7093   17.3661 N.ar    1  UNL1       -0.3381
     28 H          61.8562   88.3496   17.8486 H       1  UNL1        0.1672
     29 C          61.0186   87.8093   11.4255 C.3     1  UNL1        0.0216
     30 C          60.9065   88.8061   10.3102 C.3     1  UNL1        0.0217
     31 C          60.4495   88.3634    8.9517 C.3     1  UNL1        0.0792
     32 N          60.4327   89.3380    7.8116 N.am    1  UNL1       -0.2720
     33 C          59.2885   89.3379    6.8416 C.2     1  UNL1        0.4019
     34 O          58.1611   88.3633    7.0118 O.2     1  UNL1       -0.2264
     35 H          61.1727   89.9777    7.6999 H       1  UNL1        0.1527
     36 O          59.2717   90.3125    5.7015 O.3     1  UNL1       -0.4291
     37 C          60.5538   90.9217    5.2167 C.3     1  UNL1        0.2447
     38 C          60.5414   91.8688    4.0536 C.ar    1  UNL1        0.0714
     39 C          59.3839   92.7195    3.6215 C.ar    1  UNL1        0.1053
     40 N          59.8115   93.5080    2.4192 N.ar    1  UNL1       -0.2350
     41 C          61.2332   93.1447    2.1082 C.ar    1  UNL1        0.1343
     42 S          61.6843   92.1317    3.1184 S.2     1  UNL1       -0.0652
     43 C          60.0092   86.9462    8.7335 C.3     1  UNL1        0.0460
     44 C          60.8567   86.0145    7.9187 C.ar    1  UNL1       -0.0205
     45 C          60.2525   85.2615    6.7707 C.ar    1  UNL1       -0.0042
     46 C          61.1000   84.3299    5.9559 C.ar    1  UNL1       -0.0003
     47 C          62.5516   84.1514    6.2891 C.ar    1  UNL1       -0.0000
     48 C          63.1557   84.9045    7.4371 C.ar    1  UNL1       -0.0003
     49 C          62.3083   85.8360    8.2518 C.ar    1  UNL1       -0.0042
     50 C          62.6837   85.8676   10.9705 C.3     1  UNL1        0.0459
     51 C          62.7560   84.5687   11.7172 C.ar    1  UNL1       -0.0205
     52 C          62.5287   84.5421   13.1996 C.ar    1  UNL1       -0.0042
     53 C          62.6010   83.2433   13.9464 C.ar    1  UNL1       -0.0003
     54 C          62.9007   81.9709   13.2108 C.ar    1  UNL1       -0.0000
     55 C          63.1281   81.9974   11.7283 C.ar    1  UNL1       -0.0003
     56 C          63.0558   83.2963   10.9815 C.ar    1  UNL1       -0.0042
@<TRIPOS>BOND
     1    19    20    1
     2    20    21    1
     3    20    14    1
     4    14    15   ar
     5    15    16   ar
     6    16    13    1
     7    13     7    1
     8     7     8    1
     9     7     9   am
    10     9    10    2
    11     9    11   am
    12    11     6    1
    13     6    22    1
    14    22    23    1
    15    23    24   ar
    16    24    25   ar
    17    25    26   ar
    18    26    27   ar
    19     6     2    1
    20     2     3    2
    21     2     4   am
    22     4     1    1
    23     1    29    1
    24    29    30    1
    25    31    30    1
    26    31    43    1
    27    43    44    1
    28    44    45   ar
    29    45    46   ar
    30    46    47   ar
    31    47    48   ar
    32    48    49   ar
    33    31    32    1
    34    32    33   am
    35    33    34    2
    36    33    36    1
    37    36    37    1
    38    37    38    1
    39    38    39   ar
    40    39    40   ar
    41    40    41   ar
    42    41    42   ar
    43     1    50    1
    44    50    51    1
    45    51    52   ar
    46    52    53   ar
    47    53    54   ar
    48    54    55   ar
    49    55    56   ar
    50    16    17   ar
    51    17    18   ar
    52    18    14   ar
    53    27    23   ar
    54    49    44   ar
    55    42    38   ar
    56    56    51   ar
    57    11    12    1
    58    27    28    1
    59     4     5    1
    60    32    35    1
@<TRIPOS>MOLECULE
*****
 56 60 0 0 0
SMALL
GASTEIGER

@<TRIPOS>ATOM
      1 C          61.8574   89.4354   11.5313 C.3     1  UNL1        0.0760
      2 C          62.3823   87.0543   12.4287 C.2     1  UNL1        0.2407
      3 O          61.1065   86.5458   11.8257 O.2     1  UNL1       -0.2733
      4 N          62.7578   88.4991   12.2815 N.am    1  UNL1       -0.3043
      5 H          63.5952   88.8329   12.6772 H       1  UNL1        0.1494
      6 C          63.2827   86.1181   13.1789 C.3     1  UNL1        0.1556
      7 N          62.3343   82.2822   13.5486 N.am    1  UNL1       -0.2567
      8 C          61.5179   81.3971   14.4431 C.3     1  UNL1        0.1168
      9 C          62.4003   83.7576   13.8110 C.2     1  UNL1        0.3046
     10 O          61.6500   84.3479   14.9680 O.2     1  UNL1       -0.2526
     11 N          63.2166   84.6427   12.9165 N.am    1  UNL1       -0.2821
     12 H          63.7090   84.2552   12.1571 H       1  UNL1        0.1514
     13 C          63.0846   81.6920   12.3916 C.3     1  UNL1        0.1413
     14 C          63.2383   84.1641    9.4031 C.ar    1  UNL1        0.0875
     15 N          62.5075   83.5534   10.5620 N.ar    1  UNL1       -0.2453
     16 C          63.4123   82.5405   11.1988 C.ar    1  UNL1        0.0858
     17 C          64.7023   82.5252   10.4335 C.ar    1  UNL1        0.0530
     18 S          64.5948   83.5286    9.3237 S.2     1  UNL1       -0.0705
     19 C          62.1149   84.8413    7.1605 C.3     1  UNL1        0.0069
     20 C          62.7062   85.2240    8.4848 C.3     1  UNL1        0.0465
     21 C          62.7652   86.6668    8.8910 C.3     1  UNL1        0.0069
     22 C          64.2491   86.6572   14.1915 C.3     1  UNL1        0.0742
     23 C          63.7560   87.1009   15.5368 C.ar    1  UNL1        0.0563
     24 C          63.4550   86.2081   16.7040 C.ar    1  UNL1        0.1131
     25 N          62.9903   87.0707   17.8398 N.ar    1  UNL1       -0.2229
     26 C          63.0041   88.4967   17.3746 C.ar    1  UNL1        0.1748
     27 N          63.4774   88.5153   15.9513 N.ar    1  UNL1       -0.3381
     28 H          63.5860   89.3154   15.3881 H       1  UNL1        0.1672
     29 C          62.3715   90.7706   11.0811 C.3     1  UNL1        0.0216
     30 C          63.8053   90.9215   10.6669 C.3     1  UNL1        0.0217
     31 C          64.7559   91.7021   11.5255 C.3     1  UNL1        0.0792
     32 N          64.3362   92.1481   12.8948 N.am    1  UNL1       -0.2720
     33 C          64.4413   91.2043   14.0561 C.2     1  UNL1        0.4019
     34 O          64.9659   89.8146   13.8479 O.2     1  UNL1       -0.2264
     35 H          63.9919   93.0602   13.0314 H       1  UNL1        0.1527
     36 O          64.0217   91.6504   15.4253 O.3     1  UNL1       -0.4291
     37 C          64.9976   92.3633   16.3138 C.3     1  UNL1        0.2447
     38 C          66.3843   92.6557   15.8222 C.ar    1  UNL1        0.0714
     39 C          66.7417   93.5478   14.6706 C.ar    1  UNL1        0.1053
     40 N          68.2353   93.5508   14.5326 N.ar    1  UNL1       -0.2350
     41 C          68.8011   92.6605   15.5990 C.ar    1  UNL1        0.1343
     42 S          67.6571   92.1072   16.3960 S.2     1  UNL1       -0.0652
     43 C          66.1260   92.0365   11.0149 C.3     1  UNL1        0.0460
     44 C          66.4281   93.4240   10.5312 C.ar    1  UNL1       -0.0205
     45 C          67.3675   93.6290    9.3800 C.ar    1  UNL1       -0.0042
     46 C          67.6696   95.0164    8.8964 C.ar    1  UNL1       -0.0003
     47 C          67.0323   96.1987    9.5641 C.ar    1  UNL1       -0.0000
     48 C          66.0929   95.9937   10.7154 C.ar    1  UNL1       -0.0003
     49 C          65.7908   94.6064   11.1989 C.ar    1  UNL1       -0.0042
     50 C          60.4429   89.0362   11.2313 C.3     1  UNL1        0.0459
     51 C          60.0497   88.6625    9.8328 C.ar    1  UNL1       -0.0205
     52 C          60.2039   89.6558    8.7195 C.ar    1  UNL1       -0.0042
     53 C          59.8106   89.2821    7.3211 C.ar    1  UNL1       -0.0003
     54 C          59.2632   87.9150    7.0359 C.ar    1  UNL1       -0.0000
     55 C          59.1089   86.9216    8.1492 C.ar    1  UNL1       -0.0003
     56 C          59.5022   87.2953    9.5477 C.ar    1  UNL1       -0.0042
@<TRIPOS>BOND
     1    19    20    1
     2    20    21    1
     3    20    14    1
     4    14    15   ar
     5    15    16   ar
     6    16    13    1
     7    13     7    1
     8     7     8    1
     9     7     9   am
    10     9    10    2
    11     9    11   am
    12    11     6    1
    13     6    22    1
    14    22    23    1
    15    23    24   ar
    16    24    25   ar
    17    25    26   ar
    18    26    27   ar
    19     6     2    1
    20     2     3    2
    21     2     4   am
    22     4     1    1
    23     1    29    1
    24    29    30    1
    25    31    30    1
    26    31    43    1
    27    43    44    1
    28    44    45   ar
    29    45    46   ar
    30    46    47   ar
    31    47    48   ar
    32    48    49   ar
    33    31    32    1
    34    32    33   am
    35    33    34    2
    36    33    36    1
    37    36    37    1
    38    37    38    1
    39    38    39   ar
    40    39    40   ar
    41    40    41   ar
    42    41    42   ar
    43     1    50    1
    44    50    51    1
    45    51    52   ar
    46    52    53   ar
    47    53    54   ar
    48    54    55   ar
    49    55    56   ar
    50    16    17   ar
    51    17    18   ar
    52    18    14   ar
    53    27    23   ar
    54    49    44   ar
    55    42    38   ar
    56    56    51   ar
    57    11    12    1
    58    27    28    1
    59     4     5    1
    60    32    35    1
@<TRIPOS>MOLECULE
*****
 56 60 0 0 0
SMALL
GASTEIGER

@<TRIPOS>ATOM
      1 C          61.3151   88.8838   11.5608 C.3     1  UNL1        0.0760
      2 C          62.3715   86.8258   10.3781 C.2     1  UNL1        0.2407
      3 O          62.6738   87.6713    9.1767 O.2     1  UNL1       -0.2733
      4 N          61.6921   87.4320   11.5702 N.am    1  UNL1       -0.3043
      5 H          61.4937   86.8770   12.3588 H       1  UNL1        0.1494
      6 C          62.7485   85.3739   10.3876 C.3     1  UNL1        0.1556
      7 N          62.7653   82.2968   12.8937 N.am    1  UNL1       -0.2567
      8 C          63.2045   80.8628   12.9258 C.3     1  UNL1        0.1168
      9 C          62.9765   83.1184   11.6567 C.2     1  UNL1        0.3046
     10 O          63.6268   82.5061   10.4516 O.2     1  UNL1       -0.2526
     11 N          62.5373   84.5523   11.6247 N.am    1  UNL1       -0.2821
     12 H          62.1104   84.9541   12.4156 H       1  UNL1        0.1514
     13 C          62.1149   82.9091   14.0988 C.3     1  UNL1        0.1413
     14 C          63.1693   85.9430   16.2781 C.ar    1  UNL1        0.0875
     15 N          62.1381   84.9554   15.8185 N.ar    1  UNL1       -0.2453
     16 C          62.7827   84.0450   14.8156 C.ar    1  UNL1        0.0858
     17 C          64.2122   84.4701   14.6553 C.ar    1  UNL1        0.0530
     18 S          64.4512   85.6431   15.5592 S.2     1  UNL1       -0.0705
     19 C          62.6385   86.6984   18.7066 C.3     1  UNL1        0.0069
     20 C          62.9560   87.0383   17.2805 C.3     1  UNL1        0.0465
     21 C          63.0603   88.4734   16.8569 C.3     1  UNL1        0.0069
     22 C          63.3366   84.7438    9.1600 C.3     1  UNL1        0.0742
     23 C          62.5459   84.7022    7.8860 C.ar    1  UNL1        0.0563
     24 C          61.0701   84.9371    7.7563 C.ar    1  UNL1        0.1131
     25 N          60.7042   84.7986    6.3082 N.ar    1  UNL1       -0.2229
     26 C          61.9539   84.4781    5.5429 C.ar    1  UNL1        0.1748
     27 N          63.0921   84.4186    6.5181 N.ar    1  UNL1       -0.3381
     28 H          64.0325   84.2270    6.2989 H       1  UNL1        0.1672
     29 C          62.2192   89.8976   12.1970 C.3     1  UNL1        0.0216
     30 C          63.1746   90.6861   11.3512 C.3     1  UNL1        0.0217
     31 C          64.3420   91.3809   11.9873 C.3     1  UNL1        0.0792
     32 N          64.2070   91.9699   13.3602 N.am    1  UNL1       -0.2720
     33 C          64.5126   91.1346   14.5681 C.2     1  UNL1        0.4019
     34 O          64.9532   89.7103   14.4030 O.2     1  UNL1       -0.2264
     35 H          63.9178   92.9047   13.4685 H       1  UNL1        0.1527
     36 O          64.3776   91.7236   15.9410 O.3     1  UNL1       -0.4291
     37 C          65.4278   92.6592   16.4622 C.3     1  UNL1        0.2447
     38 C          66.7727   92.7207   15.8008 C.ar    1  UNL1        0.0714
     39 C          67.0594   93.2721   14.4356 C.ar    1  UNL1        0.1053
     40 N          68.5309   93.1337   14.1794 N.ar    1  UNL1       -0.2350
     41 C          69.1536   92.4968   15.3863 C.ar    1  UNL1        0.1343
     42 S          68.0669   92.2415   16.3883 S.2     1  UNL1       -0.0652
     43 C          65.6442   91.4866   11.2506 C.3     1  UNL1        0.0460
     44 C          66.1119   92.8178   10.7412 C.ar    1  UNL1       -0.0205
     45 C          67.3286   92.9013    9.8679 C.ar    1  UNL1       -0.0042
     46 C          67.7962   94.2324    9.3586 C.ar    1  UNL1       -0.0003
     47 C          67.0471   95.4800    9.7227 C.ar    1  UNL1       -0.0000
     48 C          65.8305   95.3964   10.5960 C.ar    1  UNL1       -0.0003
     49 C          65.3629   94.0653   11.1053 C.ar    1  UNL1       -0.0042
     50 C          60.0340   89.3218   10.9151 C.3     1  UNL1        0.0459
     51 C          59.7345   88.9271    9.4993 C.ar    1  UNL1       -0.0205
     52 C          60.0540   89.8672    8.3750 C.ar    1  UNL1       -0.0042
     53 C          59.7545   89.4724    6.9592 C.ar    1  UNL1       -0.0003
     54 C          59.1355   88.1376    6.6677 C.ar    1  UNL1       -0.0000
     55 C          58.8160   87.1974    7.7920 C.ar    1  UNL1       -0.0003
     56 C          59.1155   87.5921    9.2078 C.ar    1  UNL1       -0.0042
@<TRIPOS>BOND
     1    19    20    1
     2    20    21    1
     3    20    14    1
     4    14    15   ar
     5    15    16   ar
     6    16    13    1
     7    13     7    1
     8     7     8    1
     9     7     9   am
    10     9    10    2
    11     9    11   am
    12    11     6    1
    13     6    22    1
    14    22    23    1
    15    23    24   ar
    16    24    25   ar
    17    25    26   ar
    18    26    27   ar
    19     6     2    1
    20     2     3    2
    21     2     4   am
    22     4     1    1
    23     1    29    1
    24    29    30    1
    25    31    30    1
    26    31    43    1
    27    43    44    1
    28    44    45   ar
    29    45    46   ar
    30    46    47   ar
    31    47    48   ar
    32    48    49   ar
    33    31    32    1
    34    32    33   am
    35    33    34    2
    36    33    36    1
    37    36    37    1
    38    37    38    1
    39    38    39   ar
    40    39    40   ar
    41    40    41   ar
    42    41    42   ar
    43     1    50    1
    44    50    51    1
    45    51    52   ar
    46    52    53   ar
    47    53    54   ar
    48    54    55   ar
    49    55    56   ar
    50    16    17   ar
    51    17    18   ar
    52    18    14   ar
    53    27    23   ar
    54    49    44   ar
    55    42    38   ar
    56    56    51   ar
    57    11    12    1
    58    27    28    1
    59     4     5    1
    60    32    35    1
@<TRIPOS>MOLECULE
*****
 56 60 0 0 0
SMALL
GASTEIGER

@<TRIPOS>ATOM
      1 C          62.0007   88.8702   11.4843 C.3     1  UNL1        0.0760
      2 C          62.5941   86.6461   10.2795 C.2     1  UNL1        0.2407
      3 O          62.6887   87.3786    8.9739 O.2     1  UNL1       -0.2733
      4 N          62.2501   87.3919   11.5347 N.am    1  UNL1       -0.3043
      5 H          62.1879   86.9111   12.3916 H       1  UNL1        0.1494
      6 C          62.8434   85.1678   10.3299 C.3     1  UNL1        0.1556
      7 N          62.8521   82.2323   13.0005 N.am    1  UNL1       -0.2567
      8 C          63.3020   80.8060   13.1164 C.3     1  UNL1        0.1168
      9 C          63.0727   82.9869   11.7231 C.2     1  UNL1        0.3046
     10 O          63.7432   82.3153   10.5615 O.2     1  UNL1       -0.2526
     11 N          62.6228   84.4131   11.6073 N.am    1  UNL1       -0.2821
     12 H          62.1827   84.8539   12.3697 H       1  UNL1        0.1514
     13 C          62.1815   82.9039   14.1621 C.3     1  UNL1        0.1413
     14 C          63.2173   86.0207   16.2307 C.ar    1  UNL1        0.0875
     15 N          62.1897   85.0165   15.7998 N.ar    1  UNL1       -0.2453
     16 C          62.8434   84.0667   14.8404 C.ar    1  UNL1        0.0858
     17 C          64.2750   84.4838   14.6782 C.ar    1  UNL1        0.0530
     18 S          64.5062   85.6914   15.5375 S.2     1  UNL1       -0.0705
     19 C          62.6372   86.8720   18.6158 C.3     1  UNL1        0.0069
     20 C          62.9952   87.1549   17.1868 C.3     1  UNL1        0.0465
     21 C          63.1310   88.5719   16.7140 C.3     1  UNL1        0.0069
     22 C          63.3134   84.4443    9.1029 C.3     1  UNL1        0.0742
     23 C          62.5307   84.5445    7.8271 C.ar    1  UNL1        0.0563
     24 C          61.0873   84.9344    7.7066 C.ar    1  UNL1        0.1131
     25 N          60.7186   84.9032    6.2529 N.ar    1  UNL1       -0.2229
     26 C          61.9341   84.4940    5.4751 C.ar    1  UNL1        0.1748
     27 N          63.0541   84.2723    6.4480 N.ar    1  UNL1       -0.3381
     28 H          63.9716   83.9966    6.2212 H       1  UNL1        0.1672
     29 C          63.0907   89.8280   11.8643 C.3     1  UNL1        0.0216
     30 C          63.6416   89.8220   13.2594 C.3     1  UNL1        0.0217
     31 C          64.6291   90.8698   13.6803 C.3     1  UNL1        0.0792
     32 N          64.4939   92.2748   13.1727 N.am    1  UNL1       -0.2720
     33 C          65.2931   92.7235   11.9852 C.2     1  UNL1        0.4019
     34 O          66.2275   91.7671   11.3053 O.2     1  UNL1       -0.2264
     35 H          63.8807   92.9026   13.6190 H       1  UNL1        0.1527
     36 O          65.1579   94.1285   11.4777 O.3     1  UNL1       -0.4291
     37 C          66.3695   95.0059   11.3672 C.3     1  UNL1        0.2447
     38 C          66.8465   95.4597   10.0194 C.ar    1  UNL1        0.0714
     39 C          67.4940   94.5972    8.9769 C.ar    1  UNL1        0.1053
     40 N          67.8074   95.4601    7.7906 N.ar    1  UNL1       -0.2350
     41 C          67.3535   96.8559    8.1000 C.ar    1  UNL1        0.1343
     42 S          66.7596   96.8556    9.4774 S.2     1  UNL1       -0.0652
     43 C          65.7518   90.5125   14.6087 C.3     1  UNL1        0.0460
     44 C          66.8242   91.5171   14.9102 C.ar    1  UNL1       -0.0205
     45 C          66.6227   92.5241   16.0035 C.ar    1  UNL1       -0.0042
     46 C          67.6951   93.5285   16.3049 C.ar    1  UNL1       -0.0003
     47 C          68.9691   93.5259   15.5131 C.ar    1  UNL1       -0.0000
     48 C          69.1707   92.5189   14.4199 C.ar    1  UNL1       -0.0003
     49 C          68.0982   91.5145   14.1184 C.ar    1  UNL1       -0.0042
     50 C          60.6613   89.3906   11.0540 C.3     1  UNL1        0.0459
     51 C          60.0787   88.9654    9.7387 C.ar    1  UNL1       -0.0205
     52 C          60.2252   89.8464    8.5337 C.ar    1  UNL1       -0.0042
     53 C          59.6426   89.4212    7.2184 C.ar    1  UNL1       -0.0003
     54 C          58.9137   88.1149    7.1083 C.ar    1  UNL1       -0.0000
     55 C          58.7672   87.2338    8.3134 C.ar    1  UNL1       -0.0003
     56 C          59.3497   87.6590    9.6286 C.ar    1  UNL1       -0.0042
@<TRIPOS>BOND
     1    19    20    1
     2    20    21    1
     3    20    14    1
     4    14    15   ar
     5    15    16   ar
     6    16    13    1
     7    13     7    1
     8     7     8    1
     9     7     9   am
    10     9    10    2
    11     9    11   am
    12    11     6    1
    13     6    22    1
    14    22    23    1
    15    23    24   ar
    16    24    25   ar
    17    25    26   ar
    18    26    27   ar
    19     6     2    1
    20     2     3    2
    21     2     4   am
    22     4     1    1
    23     1    29    1
    24    29    30    1
    25    31    30    1
    26    31    43    1
    27    43    44    1
    28    44    45   ar
    29    45    46   ar
    30    46    47   ar
    31    47    48   ar
    32    48    49   ar
    33    31    32    1
    34    32    33   am
    35    33    34    2
    36    33    36    1
    37    36    37    1
    38    37    38    1
    39    38    39   ar
    40    39    40   ar
    41    40    41   ar
    42    41    42   ar
    43     1    50    1
    44    50    51    1
    45    51    52   ar
    46    52    53   ar
    47    53    54   ar
    48    54    55   ar
    49    55    56   ar
    50    16    17   ar
    51    17    18   ar
    52    18    14   ar
    53    27    23   ar
    54    49    44   ar
    55    42    38   ar
    56    56    51   ar
    57    11    12    1
    58    27    28    1
    59     4     5    1
    60    32    35    1
@<TRIPOS>MOLECULE
*****
 56 60 0 0 0
SMALL
GASTEIGER

@<TRIPOS>ATOM
      1 C          63.1125   85.6962   12.3194 C.3     1  UNL1        0.0760
      2 C          64.2617   87.2731   14.0349 C.2     1  UNL1        0.2407
      3 O          65.1514   86.1479   14.4732 O.2     1  UNL1       -0.2733
      4 N          63.2422   87.0473   12.9580 N.am    1  UNL1       -0.3043
      5 H          62.6582   87.7858   12.6703 H       1  UNL1        0.1494
      6 C          64.3913   88.6242   14.6735 C.3     1  UNL1        0.1556
      7 N          66.3348   92.0364   14.0995 N.am    1  UNL1       -0.2567
      8 C          66.3970   93.4177   14.6811 C.3     1  UNL1        0.1168
      9 C          65.3941   91.0209   14.6773 C.2     1  UNL1        0.3046
     10 O          64.5156   91.3867   15.8368 O.2     1  UNL1       -0.2526
     11 N          65.3320   89.6397   14.0957 N.am    1  UNL1       -0.2821
     12 H          65.9086   89.3997   13.3347 H       1  UNL1        0.1514
     13 C          67.2133   91.6706   12.9400 C.3     1  UNL1        0.1413
     14 C          66.9719   94.4402   10.2312 C.ar    1  UNL1        0.0875
     15 N          66.7324   93.9496   11.6284 N.ar    1  UNL1       -0.2453
     16 C          67.2492   92.5445   11.7213 C.ar    1  UNL1        0.0858
     17 C          67.8081   92.1666   10.3816 C.ar    1  UNL1        0.0530
     18 S          67.6368   93.3382    9.4607 S.2     1  UNL1       -0.0705
     19 C          66.7559   96.0882    8.2345 C.3     1  UNL1        0.0069
     20 C          66.6102   95.7948    9.6983 C.3     1  UNL1        0.0465
     21 C          66.1028   96.8559   10.6291 C.3     1  UNL1        0.0069
     22 C          63.5803   88.9597   15.8899 C.3     1  UNL1        0.0742
     23 C          63.1073   87.8661   16.8011 C.ar    1  UNL1        0.0563
     24 C          62.8778   87.9869   18.2785 C.ar    1  UNL1        0.1131
     25 N          62.4094   86.6551   18.7854 N.ar    1  UNL1       -0.2229
     26 C          62.3493   85.7112   17.6212 C.ar    1  UNL1        0.1748
     27 N          62.7806   86.4596   16.3948 N.ar    1  UNL1       -0.3381
     28 H          62.8390   86.0922   15.4833 H       1  UNL1        0.1672
     29 C          62.1536   85.4921   11.1842 C.3     1  UNL1        0.0216
     30 C          62.2594   86.3402    9.9515 C.3     1  UNL1        0.0217
     31 C          61.2427   87.4113    9.6885 C.3     1  UNL1        0.0792
     32 N          60.5284   87.4600    8.3704 N.am    1  UNL1       -0.2720
     33 C          59.7575   88.6862    7.9799 C.2     1  UNL1        0.4019
     34 O          59.7010   89.8635    8.9075 O.2     1  UNL1       -0.2264
     35 H          60.5655   86.6872    7.7616 H       1  UNL1        0.1527
     36 O          59.0432   88.7348    6.6618 O.3     1  UNL1       -0.4291
     37 C          58.4121   90.0139    6.1975 C.3     1  UNL1        0.2447
     38 C          59.1613   90.9277    5.2735 C.ar    1  UNL1        0.0714
     39 C          60.6376   90.8980    5.0098 C.ar    1  UNL1        0.1053
     40 N          60.9544   91.9835    4.0242 N.ar    1  UNL1       -0.2350
     41 C          59.6739   92.6841    3.6788 C.ar    1  UNL1        0.1343
     42 S          58.5657   92.0316    4.4509 S.2     1  UNL1       -0.0652
     43 C          60.9403   88.4337   10.7436 C.3     1  UNL1        0.0460
     44 C          61.8911   89.5692   10.9821 C.ar    1  UNL1       -0.0205
     45 C          62.0519   90.1356   12.3616 C.ar    1  UNL1       -0.0042
     46 C          63.0027   91.2710   12.6000 C.ar    1  UNL1       -0.0003
     47 C          63.7926   91.8400   11.4588 C.ar    1  UNL1       -0.0000
     48 C          63.6317   91.2736   10.0793 C.ar    1  UNL1       -0.0003
     49 C          62.6810   90.1382    9.8409 C.ar    1  UNL1       -0.0042
     50 C          63.9419   84.5492   12.8161 C.3     1  UNL1        0.0459
     51 C          63.3304   83.1867   12.9556 C.ar    1  UNL1       -0.0205
     52 C          62.5677   82.8304   14.1972 C.ar    1  UNL1       -0.0042
     53 C          61.9562   81.4679   14.3367 C.ar    1  UNL1       -0.0003
     54 C          62.1073   80.4616   13.2347 C.ar    1  UNL1       -0.0000
     55 C          62.8700   80.8177   11.9931 C.ar    1  UNL1       -0.0003
     56 C          63.4815   82.1803   11.8536 C.ar    1  UNL1       -0.0042
@<TRIPOS>BOND
     1    19    20    1
     2    20    21    1
     3    20    14    1
     4    14    15   ar
     5    15    16   ar
     6    16    13    1
     7    13     7    1
     8     7     8    1
     9     7     9   am
    10     9    10    2
    11     9    11   am
    12    11     6    1
    13     6    22    1
    14    22    23    1
    15    23    24   ar
    16    24    25   ar
    17    25    26   ar
    18    26    27   ar
    19     6     2    1
    20     2     3    2
    21     2     4   am
    22     4     1    1
    23     1    29    1
    24    29    30    1
    25    31    30    1
    26    31    43    1
    27    43    44    1
    28    44    45   ar
    29    45    46   ar
    30    46    47   ar
    31    47    48   ar
    32    48    49   ar
    33    31    32    1
    34    32    33   am
    35    33    34    2
    36    33    36    1
    37    36    37    1
    38    37    38    1
    39    38    39   ar
    40    39    40   ar
    41    40    41   ar
    42    41    42   ar
    43     1    50    1
    44    50    51    1
    45    51    52   ar
    46    52    53   ar
    47    53    54   ar
    48    54    55   ar
    49    55    56   ar
    50    16    17   ar
    51    17    18   ar
    52    18    14   ar
    53    27    23   ar
    54    49    44   ar
    55    42    38   ar
    56    56    51   ar
    57    11    12    1
    58    27    28    1
    59     4     5    1
    60    32    35    1
@<TRIPOS>MOLECULE
*****
 56 60 0 0 0
SMALL
GASTEIGER

@<TRIPOS>ATOM
      1 C          62.5160   89.3870   11.7933 C.3     1  UNL1        0.0760
      2 C          63.8516   91.4046   10.8470 C.2     1  UNL1        0.2407
      3 O          63.1355   91.2640    9.5365 O.2     1  UNL1       -0.2733
      4 N          63.5419   90.4660   11.9754 N.am    1  UNL1       -0.3043
      5 H          64.0120   90.5583   12.8355 H       1  UNL1        0.1494
      6 C          64.8775   92.4836   11.0290 C.3     1  UNL1        0.1556
      7 N          67.5128   92.4965   13.9963 N.am    1  UNL1       -0.2567
      8 C          68.9187   92.0483   14.2663 C.3     1  UNL1        0.1168
      9 C          66.8981   92.2660   12.6477 C.2     1  UNL1        0.3046
     10 O          67.6892   91.5874   11.5689 O.2     1  UNL1       -0.2526
     11 N          65.4923   92.7141   12.3778 N.am    1  UNL1       -0.2821
     12 H          64.9731   93.1595   13.0858 H       1  UNL1        0.1514
     13 C          66.7218   93.1751   15.0751 C.3     1  UNL1        0.1413
     14 C          63.9075   90.7935   16.2891 C.ar    1  UNL1        0.0875
     15 N          64.9588   91.1774   15.2904 N.ar    1  UNL1       -0.2453
     16 C          65.6145   92.4387   15.7692 C.ar    1  UNL1        0.0858
     17 C          64.9684   92.8344   17.0638 C.ar    1  UNL1        0.0530
     18 S          63.9135   91.8176   17.3852 S.2     1  UNL1       -0.0705
     19 C          61.9823   89.5022   15.1161 C.3     1  UNL1        0.0069
     20 C          63.0082   89.5958   16.2064 C.3     1  UNL1        0.0465
     21 C          63.1349   88.4918   17.2140 C.3     1  UNL1        0.0069
     22 C          65.2886   93.3322    9.8625 C.3     1  UNL1        0.0742
     23 C          65.9551   94.6557   10.0957 C.ar    1  UNL1        0.0563
     24 C          67.1704   95.1687    9.3818 C.ar    1  UNL1        0.1131
     25 N          67.4897   96.5286    9.9286 N.ar    1  UNL1       -0.2229
     26 C          66.4716   96.8559   10.9804 C.ar    1  UNL1        0.1748
     27 N          65.5231   95.6984   11.0837 N.ar    1  UNL1       -0.3381
     28 H          64.7525   95.6343   11.6929 H       1  UNL1        0.1672
     29 C          61.0565   89.7118   11.9130 C.3     1  UNL1        0.0216
     30 C          60.2429   89.9733   10.6803 C.3     1  UNL1        0.0217
     31 C          60.3089   89.0221    9.5223 C.3     1  UNL1        0.0792
     32 N          60.4594   89.5496    8.1261 N.am    1  UNL1       -0.2720
     33 C          59.4115   89.2517    7.0949 C.2     1  UNL1        0.4019
     34 O          58.2133   88.4265    7.4598 O.2     1  UNL1       -0.2264
     35 H          61.2458   90.0912    7.8866 H       1  UNL1        0.1527
     36 O          59.5620   89.7791    5.6987 O.3     1  UNL1       -0.4291
     37 C          59.4843   91.2549    5.4421 C.3     1  UNL1        0.2447
     38 C          60.2356   91.8567    4.2917 C.ar    1  UNL1        0.0714
     39 C          59.6962   92.8575    3.3133 C.ar    1  UNL1        0.1053
     40 N          60.7855   93.1827    2.3347 N.ar    1  UNL1       -0.2350
     41 C          61.9982   92.3829    2.7083 C.ar    1  UNL1        0.1343
     42 S          61.6584   91.5634    3.9178 S.2     1  UNL1       -0.0652
     43 C          60.2244   87.5436    9.7604 C.3     1  UNL1        0.0460
     44 C          60.9525   86.5952    8.8546 C.ar    1  UNL1       -0.0205
     45 C          60.2425   85.9814    7.6845 C.ar    1  UNL1       -0.0042
     46 C          60.9707   85.0330    6.7788 C.ar    1  UNL1       -0.0003
     47 C          62.4088   84.6984    7.0432 C.ar    1  UNL1       -0.0000
     48 C          63.1187   85.3122    8.2133 C.ar    1  UNL1       -0.0003
     49 C          62.3906   86.2606    9.1190 C.ar    1  UNL1       -0.0042
     50 C          62.9497   87.9830   11.4916 C.3     1  UNL1        0.0459
     51 C          63.3304   87.0589   12.6101 C.ar    1  UNL1       -0.0205
     52 C          64.2039   87.5515   13.7255 C.ar    1  UNL1       -0.0042
     53 C          64.5847   86.6274   14.8440 C.ar    1  UNL1       -0.0003
     54 C          64.0918   85.2107   14.8471 C.ar    1  UNL1       -0.0000
     55 C          63.2182   84.7180   13.7316 C.ar    1  UNL1       -0.0003
     56 C          62.8375   85.6422   12.6131 C.ar    1  UNL1       -0.0042
@<TRIPOS>BOND
     1    19    20    1
     2    20    21    1
     3    20    14    1
     4    14    15   ar
     5    15    16   ar
     6    16    13    1
     7    13     7    1
     8     7     8    1
     9     7     9   am
    10     9    10    2
    11     9    11   am
    12    11     6    1
    13     6    22    1
    14    22    23    1
    15    23    24   ar
    16    24    25   ar
    17    25    26   ar
    18    26    27   ar
    19     6     2    1
    20     2     3    2
    21     2     4   am
    22     4     1    1
    23     1    29    1
    24    29    30    1
    25    31    30    1
    26    31    43    1
    27    43    44    1
    28    44    45   ar
    29    45    46   ar
    30    46    47   ar
    31    47    48   ar
    32    48    49   ar
    33    31    32    1
    34    32    33   am
    35    33    34    2
    36    33    36    1
    37    36    37    1
    38    37    38    1
    39    38    39   ar
    40    39    40   ar
    41    40    41   ar
    42    41    42   ar
    43     1    50    1
    44    50    51    1
    45    51    52   ar
    46    52    53   ar
    47    53    54   ar
    48    54    55   ar
    49    55    56   ar
    50    16    17   ar
    51    17    18   ar
    52    18    14   ar
    53    27    23   ar
    54    49    44   ar
    55    42    38   ar
    56    56    51   ar
    57    11    12    1
    58    27    28    1
    59     4     5    1
    60    32    35    1
@<TRIPOS>MOLECULE
*****
 56 60 0 0 0
SMALL
GASTEIGER

@<TRIPOS>ATOM
      1 C          62.7501   89.4661   11.3352 C.3     1  UNL1        0.0760
      2 C          60.7744   89.1775    9.6729 C.2     1  UNL1        0.2407
      3 O          59.8364   89.7642   10.6857 O.2     1  UNL1       -0.2733
      4 N          62.2313   89.0284    9.9976 N.am    1  UNL1       -0.3043
      5 H          62.8469   88.6433    9.3328 H       1  UNL1        0.1494
      6 C          60.2556   88.7398    8.3352 C.3     1  UNL1        0.1556
      7 N          58.9789   90.9764    5.3157 N.am    1  UNL1       -0.2567
      8 C          57.6972   91.2992    4.6064 C.3     1  UNL1        0.1168
      9 C          58.9764   90.0195    6.4708 C.2     1  UNL1        0.3046
     10 O          57.6922   89.3853    6.9165 O.2     1  UNL1       -0.2526
     11 N          60.2580   89.6968    7.1801 N.am    1  UNL1       -0.2821
     12 H          61.1008   90.1130    6.8875 H       1  UNL1        0.1514
     13 C          60.2630   91.6107    4.8700 C.3     1  UNL1        0.1413
     14 C          59.7568   93.2345    1.3810 C.ar    1  UNL1        0.0875
     15 N          59.2038   92.6643    2.6534 N.ar    1  UNL1       -0.2453
     16 C          60.3584   92.2352    3.5094 C.ar    1  UNL1        0.0858
     17 C          61.6250   92.5401    2.7661 C.ar    1  UNL1        0.0530
     18 S          61.2533   93.1577    1.4507 S.2     1  UNL1       -0.0705
     19 C          57.7463   93.0449   -0.2535 C.3     1  UNL1        0.0069
     20 C          58.9544   93.7849    0.2395 C.3     1  UNL1        0.0465
     21 C          59.3601   95.0751   -0.4091 C.3     1  UNL1        0.0069
     22 C          59.7343   87.3452    8.1527 C.3     1  UNL1        0.0742
     23 C          60.6571   86.2529    7.6996 C.ar    1  UNL1        0.0563
     24 C          62.0077   85.9445    8.2748 C.ar    1  UNL1        0.1131
     25 N          62.5766   84.7782    7.5224 N.ar    1  UNL1       -0.2229
     26 C          61.5777   84.3658    6.4822 C.ar    1  UNL1        0.1748
     27 N          60.3914   85.2772    6.5917 N.ar    1  UNL1       -0.3381
     28 H          59.5807   85.2413    6.0343 H       1  UNL1        0.1672
     29 C          63.1071   88.4431   12.3725 C.3     1  UNL1        0.0216
     30 C          62.8722   86.9866   12.1015 C.3     1  UNL1        0.0217
     31 C          63.5298   85.9481   12.9613 C.3     1  UNL1        0.0792
     32 N          63.2654   84.4925   12.7137 N.am    1  UNL1       -0.2720
     33 C          62.3218   83.7396   13.6041 C.2     1  UNL1        0.4019
     34 O          61.6425   84.4424   14.7419 O.2     1  UNL1       -0.2264
     35 H          63.7113   84.0313   11.9669 H       1  UNL1        0.1527
     36 O          62.0574   82.2840   13.3566 O.3     1  UNL1       -0.4291
     37 C          63.1822   81.3743   12.9602 C.3     1  UNL1        0.2447
     38 C          63.0069   80.4189   11.8171 C.ar    1  UNL1        0.0714
     39 C          62.6035   78.9783   11.9260 C.ar    1  UNL1        0.1053
     40 N          62.5515   78.4055   10.5407 N.ar    1  UNL1       -0.2350
     41 C          62.9228   79.4921    9.5756 C.ar    1  UNL1        0.1343
     42 S          63.2043   80.7364   10.3645 S.2     1  UNL1       -0.0652
     43 C          64.4517   86.3653   14.0685 C.3     1  UNL1        0.0460
     44 C          63.8880   86.8451   15.3732 C.ar    1  UNL1       -0.0205
     45 C          63.6951   88.3133   15.6122 C.ar    1  UNL1       -0.0042
     46 C          63.1314   88.7930   16.9168 C.ar    1  UNL1       -0.0003
     47 C          62.7606   87.8046   17.9824 C.ar    1  UNL1       -0.0000
     48 C          62.9535   86.3364   17.7434 C.ar    1  UNL1       -0.0003
     49 C          63.5172   85.8566   16.4388 C.ar    1  UNL1       -0.0042
     50 C          62.9119   90.9268   11.6355 C.3     1  UNL1        0.0459
     51 C          64.2432   91.4589   12.0764 C.ar    1  UNL1       -0.0205
     52 C          64.7171   91.2244   13.4801 C.ar    1  UNL1       -0.0042
     53 C          66.0485   91.7565   13.9210 C.ar    1  UNL1       -0.0003
     54 C          66.9060   92.5230   12.9582 C.ar    1  UNL1       -0.0000
     55 C          66.4321   92.7575   11.5544 C.ar    1  UNL1       -0.0003
     56 C          65.1007   92.2254   11.1135 C.ar    1  UNL1       -0.0042
@<TRIPOS>BOND
     1    19    20    1
     2    20    21    1
     3    20    14    1
     4    14    15   ar
     5    15    16   ar
     6    16    13    1
     7    13     7    1
     8     7     8    1
     9     7     9   am
    10     9    10    2
    11     9    11   am
    12    11     6    1
    13     6    22    1
    14    22    23    1
    15    23    24   ar
    16    24    25   ar
    17    25    26   ar
    18    26    27   ar
    19     6     2    1
    20     2     3    2
    21     2     4   am
    22     4     1    1
    23     1    29    1
    24    29    30    1
    25    31    30    1
    26    31    43    1
    27    43    44    1
    28    44    45   ar
    29    45    46   ar
    30    46    47   ar
    31    47    48   ar
    32    48    49   ar
    33    31    32    1
    34    32    33   am
    35    33    34    2
    36    33    36    1
    37    36    37    1
    38    37    38    1
    39    38    39   ar
    40    39    40   ar
    41    40    41   ar
    42    41    42   ar
    43     1    50    1
    44    50    51    1
    45    51    52   ar
    46    52    53   ar
    47    53    54   ar
    48    54    55   ar
    49    55    56   ar
    50    16    17   ar
    51    17    18   ar
    52    18    14   ar
    53    27    23   ar
    54    49    44   ar
    55    42    38   ar
    56    56    51   ar
    57    11    12    1
    58    27    28    1
    59     4     5    1
    60    32    35    1
@<TRIPOS>MOLECULE
*****
 56 60 0 0 0
SMALL
GASTEIGER

@<TRIPOS>ATOM
      1 C          63.7478   90.3605   13.8497 C.3     1  UNL1        0.0760
      2 C          61.9660   89.2042   12.3537 C.2     1  UNL1        0.2407
      3 O          62.9950   88.2151   11.8925 O.2     1  UNL1       -0.2733
      4 N          62.3423   90.2769   13.3324 N.am    1  UNL1       -0.3043
      5 H          61.6669   90.9260   13.6351 H       1  UNL1        0.1494
      6 C          60.5605   89.1206   11.8363 C.3     1  UNL1        0.1556
      7 N          59.6809   88.3070    8.0529 N.am    1  UNL1       -0.2567
      8 C          59.3881   89.0357    6.7748 C.3     1  UNL1        0.1168
      9 C          59.9743   89.0781    9.3056 C.2     1  UNL1        0.3046
     10 O          59.9749   90.5779    9.2803 O.2     1  UNL1       -0.2526
     11 N          60.2671   88.3495   10.5836 N.am    1  UNL1       -0.2821
     12 H          60.2666   87.3651   10.6001 H       1  UNL1        0.1514
     13 C          59.6803   86.8073    8.0782 C.3     1  UNL1        0.1413
     14 C          62.5611   84.9240    9.8727 C.ar    1  UNL1        0.0875
     15 N          61.2400   85.6336    9.9045 N.ar    1  UNL1       -0.2453
     16 C          60.9110   86.0638    8.5056 C.ar    1  UNL1        0.0858
     17 C          62.0289   85.6201    7.6093 C.ar    1  UNL1        0.0530
     18 S          63.0487   84.9157    8.4541 S.2     1  UNL1       -0.0705
     19 C          64.3056   83.2622   10.8448 C.3     1  UNL1        0.0069
     20 C          63.2702   84.3275   11.0522 C.3     1  UNL1        0.0465
     21 C          62.9437   84.7963   12.4392 C.3     1  UNL1        0.0069
     22 C          59.4485   89.8080   12.5717 C.3     1  UNL1        0.0742
     23 C          58.2642   89.0199   13.0475 C.ar    1  UNL1        0.0563
     24 C          58.2095   88.1691   14.2817 C.ar    1  UNL1        0.1131
     25 N          56.8382   87.5676   14.3696 N.ar    1  UNL1       -0.2229
     26 C          56.0454   88.0466   13.1898 C.ar    1  UNL1        0.1748
     27 N          56.9267   88.9442   12.3727 N.ar    1  UNL1       -0.3381
     28 H          56.6720   89.4030   11.5397 H       1  UNL1        0.1672
     29 C          64.8539   90.8174   12.9455 C.3     1  UNL1        0.0216
     30 C          64.5998   91.8979   11.9366 C.3     1  UNL1        0.0217
     31 C          65.6546   92.9275   11.6585 C.3     1  UNL1        0.0792
     32 N          66.2491   93.0404   10.2860 N.am    1  UNL1       -0.2720
     33 C          67.6063   92.4657   10.0069 C.2     1  UNL1        0.4019
     34 O          68.3689   91.7781   11.1003 O.2     1  UNL1       -0.2264
     35 H          65.7486   93.4917    9.5683 H       1  UNL1        0.1527
     36 O          68.2008   92.5786    8.6343 O.3     1  UNL1       -0.4291
     37 C          68.4025   93.9289    8.0132 C.3     1  UNL1        0.2447
     38 C          67.4730   95.0566    8.3514 C.ar    1  UNL1        0.0714
     39 C          66.4049   95.6165    7.4595 C.ar    1  UNL1        0.1053
     40 N          65.7201   96.7283    8.1978 N.ar    1  UNL1       -0.2350
     41 C          66.3651   96.8555    9.5461 C.ar    1  UNL1        0.1343
     42 S          67.4485   95.8223    9.6410 S.2     1  UNL1       -0.0652
     43 C          66.1149   93.8442   12.7529 C.3     1  UNL1        0.0460
     44 C          66.7842   93.2807   13.9714 C.ar    1  UNL1       -0.0205
     45 C          66.0132   93.1323   15.2495 C.ar    1  UNL1       -0.0042
     46 C          66.6825   92.5689   16.4679 C.ar    1  UNL1       -0.0003
     47 C          68.1227   92.1537   16.4082 C.ar    1  UNL1       -0.0000
     48 C          68.8936   92.3021   15.1301 C.ar    1  UNL1       -0.0003
     49 C          68.2243   92.8656   13.9117 C.ar    1  UNL1       -0.0042
     50 C          64.0471   89.9871   15.2714 C.3     1  UNL1        0.0459
     51 C          63.7808   88.5915   15.7523 C.ar    1  UNL1       -0.0205
     52 C          64.3289   87.4194   14.9935 C.ar    1  UNL1       -0.0042
     53 C          64.0626   86.0237   15.4744 C.ar    1  UNL1       -0.0003
     54 C          63.2482   85.8001   16.7140 C.ar    1  UNL1       -0.0000
     55 C          62.7001   86.9723   17.4728 C.ar    1  UNL1       -0.0003
     56 C          62.9664   88.3679   16.9920 C.ar    1  UNL1       -0.0042
@<TRIPOS>BOND
     1    19    20    1
     2    20    21    1
     3    20    14    1
     4    14    15   ar
     5    15    16   ar
     6    16    13    1
     7    13     7    1
     8     7     8    1
     9     7     9   am
    10     9    10    2
    11     9    11   am
    12    11     6    1
    13     6    22    1
    14    22    23    1
    15    23    24   ar
    16    24    25   ar
    17    25    26   ar
    18    26    27   ar
    19     6     2    1
    20     2     3    2
    21     2     4   am
    22     4     1    1
    23     1    29    1
    24    29    30    1
    25    31    30    1
    26    31    43    1
    27    43    44    1
    28    44    45   ar
    29    45    46   ar
    30    46    47   ar
    31    47    48   ar
    32    48    49   ar
    33    31    32    1
    34    32    33   am
    35    33    34    2
    36    33    36    1
    37    36    37    1
    38    37    38    1
    39    38    39   ar
    40    39    40   ar
    41    40    41   ar
    42    41    42   ar
    43     1    50    1
    44    50    51    1
    45    51    52   ar
    46    52    53   ar
    47    53    54   ar
    48    54    55   ar
    49    55    56   ar
    50    16    17   ar
    51    17    18   ar
    52    18    14   ar
    53    27    23   ar
    54    49    44   ar
    55    42    38   ar
    56    56    51   ar
    57    11    12    1
    58    27    28    1
    59     4     5    1
    60    32    35    1
