@<TRIPOS>MOLECULE
*****
 35 39 0 0 0
SMALL
GASTEIGER

@<TRIPOS>ATOM
      1 C          63.4141   84.4733   14.5046 C.ar    1  UNL1        0.1879
      2 N          63.8065   84.9665   15.8658 N.ar    1  UNL1       -0.1271
      3 N          64.0611   86.4415   15.7689 N.ar    1  UNL1       -0.1330
      4 C          63.8262   86.8600   14.3477 C.ar    1  UNL1        0.1468
      5 N          63.4263   85.6436   13.5664 N.ar    1  UNL1       -0.2739
      6 C          63.0965   85.6045   12.1036 C.ar    1  UNL1        0.0939
      7 C          62.0483   86.5215   11.5463 C.ar    1  UNL1        0.0199
      8 C          61.7185   86.4823   10.0835 C.ar    1  UNL1        0.0016
      9 C          62.4368   85.5262    9.1780 C.ar    1  UNL1        0.0024
     10 C          63.4850   84.6093    9.7354 C.ar    1  UNL1        0.0311
     11 C          63.8148   84.6484   11.1981 C.ar    1  UNL1        0.1562
     12 F          64.8630   83.7314   11.7554 F       1  UNL1       -0.2026
     13 C          62.3818   80.2284   13.4251 C.ar    1  UNL1        0.1576
     14 C          61.2980   81.1858   13.8233 C.ar    1  UNL1        0.0402
     15 C          61.6421   82.6008   14.1831 C.ar    1  UNL1        0.0254
     16 C          63.0700   83.0584   14.1448 C.ar    1  UNL1        0.1176
     17 N          64.1539   82.1010   13.7466 N.ar    1  UNL1       -0.2376
     18 C          63.8098   80.6860   13.3868 C.ar    1  UNL1        0.1357
     19 O          62.0377   78.8135   13.0653 O.3     1  UNL1       -0.4739
     20 C          62.7473   79.2162   10.5987 C.3     1  UNL1        0.0512
     21 C          62.3991   78.2744   11.7130 C.3     1  UNL1        0.2056
     22 C          63.9664   88.2508   13.8035 C.3     1  UNL1        0.0624
     23 C          64.6022   89.5201   14.2877 C.3     1  UNL1        0.0272
     24 C          64.1648   90.2176   13.0337 C.3     1  UNL1        0.0728
     25 C          63.5290   88.9481   12.5495 C.3     1  UNL1        0.0272
     26 N          64.3050   91.6082   12.4895 N.am    1  UNL1       -0.3012
     27 C          65.6285   92.3108   12.5588 C.2     1  UNL1        0.2635
     28 O          66.8117   91.6227   13.1723 O.2     1  UNL1       -0.2685
     29 H          63.5284   92.0598   12.0867 H       1  UNL1        0.1497
     30 C          65.7688   93.7015   12.0145 C.ar    1  UNL1        0.1345
     31 C          65.4321   93.9830   10.5801 C.ar    1  UNL1        0.0238
     32 C          65.5724   95.3738   10.0358 C.ar    1  UNL1        0.0033
     33 C          66.0494   96.4830   10.9259 C.ar    1  UNL1        0.0207
     34 C          66.3861   96.2014   12.3603 C.ar    1  UNL1        0.0990
     35 N          66.2458   94.8106   12.9045 N.ar    1  UNL1       -0.2393
@<TRIPOS>BOND
     1    20    21    1
     2    21    19    1
     3    19    13    1
     4    13    14   ar
     5    14    15   ar
     6    15    16   ar
     7    16     1    1
     8     1     2   ar
     9     2     3   ar
    10     3     4   ar
    11    22     4    1
    12    22    23    1
    13    23    24    1
    14    24    26    1
    15    26    27   am
    16    27    28    2
    17    27    30    1
    18    30    31   ar
    19    31    32   ar
    20    32    33   ar
    21    33    34   ar
    22    34    35   ar
    23    24    25    1
    24     4     5   ar
    25     5     6    1
    26     6     7   ar
    27     7     8   ar
    28     8     9   ar
    29     9    10   ar
    30    10    11   ar
    31    11    12    1
    32    16    17   ar
    33    17    18   ar
    34    18    13   ar
    35     5     1   ar
    36    11     6   ar
    37    25    22    1
    38    35    30   ar
    39    26    29    1
@<TRIPOS>MOLECULE
*****
 35 39 0 0 0
SMALL
GASTEIGER

@<TRIPOS>ATOM
      1 C          63.2233   85.6194   13.9793 C.ar    1  UNL1        0.1879
      2 N          63.7828   86.2464   15.2219 N.ar    1  UNL1       -0.1271
      3 N          64.1083   87.6777   14.9127 N.ar    1  UNL1       -0.1330
      4 C          63.7500   87.9353   13.4791 C.ar    1  UNL1        0.1468
      5 N          63.2031   86.6632   12.9023 N.ar    1  UNL1       -0.2739
      6 C          62.7206   86.4690   11.4953 C.ar    1  UNL1        0.0939
      7 C          63.4643   85.5553   10.5667 C.ar    1  UNL1        0.0199
      8 C          62.9818   85.3612    9.1598 C.ar    1  UNL1        0.0016
      9 C          61.7557   86.0807    8.6813 C.ar    1  UNL1        0.0024
     10 C          61.0120   86.9943    9.6099 C.ar    1  UNL1        0.0311
     11 C          61.4945   87.1885   11.0168 C.ar    1  UNL1        0.1562
     12 F          60.7507   88.1022   11.9453 F       1  UNL1       -0.2026
     13 C          61.8474   81.3558   13.5571 C.ar    1  UNL1        0.1576
     14 C          62.1948   82.1561   12.3370 C.ar    1  UNL1        0.0402
     15 C          62.6535   83.5773   12.4777 C.ar    1  UNL1        0.0254
     16 C          62.7647   84.1982   13.8386 C.ar    1  UNL1        0.1176
     17 N          62.4172   83.3980   15.0587 N.ar    1  UNL1       -0.2376
     18 C          61.9586   81.9767   14.9180 C.ar    1  UNL1        0.1357
     19 O          61.3887   79.9346   13.4164 O.3     1  UNL1       -0.4739
     20 C          59.0101   80.5556   14.2569 C.3     1  UNL1        0.0512
     21 C          60.0539   79.5199   13.9607 C.3     1  UNL1        0.2056
     22 C          63.9104   89.2365   12.7503 C.3     1  UNL1        0.0624
     23 C          64.5744   90.5469   13.0531 C.3     1  UNL1        0.0272
     24 C          64.1373   91.0766   11.7195 C.3     1  UNL1        0.0728
     25 C          63.4733   89.7660   11.4167 C.3     1  UNL1        0.0272
     26 N          64.2977   92.3777   10.9906 N.am    1  UNL1       -0.3012
     27 C          65.6663   92.9519   10.7736 C.2     1  UNL1        0.2635
     28 O          66.8745   92.2250   11.2854 O.2     1  UNL1       -0.2685
     29 H          63.5047   92.8548   10.6547 H       1  UNL1        0.1497
     30 C          65.8268   94.2531   10.0447 C.ar    1  UNL1        0.1345
     31 C          66.8225   94.3699    8.9289 C.ar    1  UNL1        0.0238
     32 C          66.9829   95.6711    8.2000 C.ar    1  UNL1        0.0033
     33 C          66.1477   96.8554    8.5869 C.ar    1  UNL1        0.0207
     34 C          65.1521   96.7387    9.7027 C.ar    1  UNL1        0.0990
     35 N          64.9916   95.4374   10.4316 N.ar    1  UNL1       -0.2393
@<TRIPOS>BOND
     1    20    21    1
     2    21    19    1
     3    19    13    1
     4    13    14   ar
     5    14    15   ar
     6    15    16   ar
     7    16     1    1
     8     1     2   ar
     9     2     3   ar
    10     3     4   ar
    11    22     4    1
    12    22    23    1
    13    23    24    1
    14    24    26    1
    15    26    27   am
    16    27    28    2
    17    27    30    1
    18    30    31   ar
    19    31    32   ar
    20    32    33   ar
    21    33    34   ar
    22    34    35   ar
    23    24    25    1
    24     4     5   ar
    25     5     6    1
    26     6     7   ar
    27     7     8   ar
    28     8     9   ar
    29     9    10   ar
    30    10    11   ar
    31    11    12    1
    32    16    17   ar
    33    17    18   ar
    34    18    13   ar
    35     5     1   ar
    36    11     6   ar
    37    25    22    1
    38    35    30   ar
    39    26    29    1
@<TRIPOS>MOLECULE
*****
 35 39 0 0 0
SMALL
GASTEIGER

@<TRIPOS>ATOM
      1 C          65.7558   91.6792   13.4583 C.ar    1  UNL1        0.1879
      2 N          66.6787   91.3192   14.5846 N.ar    1  UNL1       -0.1271
      3 N          66.3294   89.9353   15.0460 N.ar    1  UNL1       -0.1330
      4 C          65.1906   89.4399   14.2047 C.ar    1  UNL1        0.1468
      5 N          64.8361   90.5177   13.2235 N.ar    1  UNL1       -0.2739
      6 C          63.7522   90.4464   12.1890 C.ar    1  UNL1        0.0939
      7 C          64.0781   90.6816   10.7438 C.ar    1  UNL1        0.0199
      8 C          62.9942   90.6104    9.7093 C.ar    1  UNL1        0.0016
      9 C          61.5844   90.3039   10.1200 C.ar    1  UNL1        0.0024
     10 C          61.2586   90.0687   11.5652 C.ar    1  UNL1        0.0311
     11 C          62.3425   90.1400   12.5996 C.ar    1  UNL1        0.1562
     12 F          62.0165   89.9047   14.0448 F       1  UNL1       -0.2026
     13 C          65.7476   95.5616   11.1831 C.ar    1  UNL1        0.1576
     14 C          66.2851   95.5136   12.5826 C.ar    1  UNL1        0.0402
     15 C          66.2878   94.2195   13.3410 C.ar    1  UNL1        0.0254
     16 C          65.7531   92.9733   12.6999 C.ar    1  UNL1        0.1176
     17 N          65.2156   93.0213   11.3003 N.ar    1  UNL1       -0.2376
     18 C          65.2129   94.3155   10.5419 C.ar    1  UNL1        0.1357
     19 O          65.7449   96.8558   10.4247 O.3     1  UNL1       -0.4739
     20 C          67.3198   96.7854    8.3596 C.3     1  UNL1        0.0512
     21 C          65.9371   96.8537    8.9371 C.3     1  UNL1        0.2056
     22 C          64.5234   88.1018   14.3238 C.3     1  UNL1        0.0624
     23 C          63.8469   87.1651   13.3673 C.3     1  UNL1        0.0272
     24 C          63.5798   86.2093   14.4921 C.3     1  UNL1        0.0728
     25 C          64.2564   87.1461   15.4486 C.3     1  UNL1        0.0272
     26 N          62.9127   84.8712   14.6113 N.am    1  UNL1       -0.3012
     27 C          63.3396   83.7388   13.7250 C.2     1  UNL1        0.2635
     28 O          64.4337   83.9446   12.7197 O.2     1  UNL1       -0.2685
     29 H          62.1946   84.7361   15.2711 H       1  UNL1        0.1497
     30 C          62.6725   82.4006   13.8441 C.ar    1  UNL1        0.1345
     31 C          63.4705   81.1450   13.6525 C.ar    1  UNL1        0.0238
     32 C          62.8033   79.8068   13.7716 C.ar    1  UNL1        0.0033
     33 C          61.3382   79.7242   14.0822 C.ar    1  UNL1        0.0207
     34 C          60.5402   80.9798   14.2738 C.ar    1  UNL1        0.0990
     35 N          61.2074   82.3180   14.1547 N.ar    1  UNL1       -0.2393
@<TRIPOS>BOND
     1    20    21    1
     2    21    19    1
     3    19    13    1
     4    13    14   ar
     5    14    15   ar
     6    15    16   ar
     7    16     1    1
     8     1     2   ar
     9     2     3   ar
    10     3     4   ar
    11    22     4    1
    12    22    23    1
    13    23    24    1
    14    24    26    1
    15    26    27   am
    16    27    28    2
    17    27    30    1
    18    30    31   ar
    19    31    32   ar
    20    32    33   ar
    21    33    34   ar
    22    34    35   ar
    23    24    25    1
    24     4     5   ar
    25     5     6    1
    26     6     7   ar
    27     7     8   ar
    28     8     9   ar
    29     9    10   ar
    30    10    11   ar
    31    11    12    1
    32    16    17   ar
    33    17    18   ar
    34    18    13   ar
    35     5     1   ar
    36    11     6   ar
    37    25    22    1
    38    35    30   ar
    39    26    29    1
@<TRIPOS>MOLECULE
*****
 35 39 0 0 0
SMALL
GASTEIGER

@<TRIPOS>ATOM
      1 C          60.6414   86.5370    9.0557 C.ar    1  UNL1        0.1879
      2 N          59.8955   85.7605    8.0113 N.ar    1  UNL1       -0.1271
      3 N          59.4694   86.7178    6.9380 N.ar    1  UNL1       -0.1330
      4 C          59.9519   88.0860    7.3191 C.ar    1  UNL1        0.1468
      5 N          60.6762   87.9743    8.6278 N.ar    1  UNL1       -0.2739
      6 C          61.3220   89.1019    9.3772 C.ar    1  UNL1        0.0939
      7 C          62.8111   89.2767    9.3321 C.ar    1  UNL1        0.0199
      8 C          63.4569   90.4043   10.0814 C.ar    1  UNL1        0.0016
      9 C          62.6136   91.3570   10.8759 C.ar    1  UNL1        0.0024
     10 C          61.1245   91.1822   10.9210 C.ar    1  UNL1        0.0311
     11 C          60.4788   90.0546   10.1716 C.ar    1  UNL1        0.1562
     12 F          58.9896   89.8798   10.2168 F       1  UNL1       -0.2026
     13 C          62.4559   84.8509   12.8127 C.ar    1  UNL1        0.1576
     14 C          62.6603   84.1514   11.5017 C.ar    1  UNL1        0.0402
     15 C          62.0555   84.7134   10.2493 C.ar    1  UNL1        0.0254
     16 C          61.2462   85.9750   10.3080 C.ar    1  UNL1        0.1176
     17 N          61.0418   86.6745   11.6190 N.ar    1  UNL1       -0.2376
     18 C          61.6466   86.1125   12.8714 C.ar    1  UNL1        0.1357
     19 O          63.0607   84.2889   14.0650 O.3     1  UNL1       -0.4739
     20 C          64.7131   86.0919   14.9417 C.3     1  UNL1        0.0512
     21 C          64.4462   84.6916   14.4749 C.3     1  UNL1        0.2056
     22 C          59.7462   89.3449    6.5299 C.3     1  UNL1        0.0624
     23 C          60.6496   90.3911    5.9474 C.3     1  UNL1        0.0272
     24 C          59.4552   91.1253    5.4139 C.3     1  UNL1        0.0728
     25 C          58.5519   90.0790    5.9964 C.3     1  UNL1        0.0272
     26 N          59.2495   92.3842    4.6247 N.am    1  UNL1       -0.3012
     27 C          60.1429   92.6938    3.4602 C.2     1  UNL1        0.2635
     28 O          61.2420   91.7446    3.0849 O.2     1  UNL1       -0.2685
     29 H          58.5281   93.0072    4.8711 H       1  UNL1        0.1497
     30 C          59.9371   93.9527    2.6710 C.ar    1  UNL1        0.1345
     31 C          59.5231   93.8762    1.2313 C.ar    1  UNL1        0.0238
     32 C          59.3174   95.1352    0.4421 C.ar    1  UNL1        0.0033
     33 C          59.5257   96.4706    1.0926 C.ar    1  UNL1        0.0207
     34 C          59.9398   96.5472    2.5323 C.ar    1  UNL1        0.0990
     35 N          60.1455   95.2882    3.3215 N.ar    1  UNL1       -0.2393
@<TRIPOS>BOND
     1    20    21    1
     2    21    19    1
     3    19    13    1
     4    13    14   ar
     5    14    15   ar
     6    15    16   ar
     7    16     1    1
     8     1     2   ar
     9     2     3   ar
    10     3     4   ar
    11    22     4    1
    12    22    23    1
    13    23    24    1
    14    24    26    1
    15    26    27   am
    16    27    28    2
    17    27    30    1
    18    30    31   ar
    19    31    32   ar
    20    32    33   ar
    21    33    34   ar
    22    34    35   ar
    23    24    25    1
    24     4     5   ar
    25     5     6    1
    26     6     7   ar
    27     7     8   ar
    28     8     9   ar
    29     9    10   ar
    30    10    11   ar
    31    11    12    1
    32    16    17   ar
    33    17    18   ar
    34    18    13   ar
    35     5     1   ar
    36    11     6   ar
    37    25    22    1
    38    35    30   ar
    39    26    29    1
