@<TRIPOS>MOLECULE
*****
 39 42 0 0 0
SMALL
GASTEIGER

@<TRIPOS>ATOM
      1 C          64.8598   92.1187   11.5094 C.3     1  UNL1        0.1695
      2 C          65.5742   92.4572   12.7842 C.3     1  UNL1        0.1271
      3 N          65.2531   92.0165   14.1815 N.am    1  UNL1       -0.2553
      4 C          66.1677   92.5320   15.2529 C.2     1  UNL1        0.2294
      5 O          65.9349   92.1512   16.6850 O.2     1  UNL1       -0.2745
      6 C          64.1383   91.1285   14.6493 C.ar    1  UNL1        0.0676
      7 C          64.1763   90.9386   16.1367 C.ar    1  UNL1        0.0162
      8 C          63.1453   90.0821   16.8100 C.ar    1  UNL1        0.0014
      9 C          62.0763   89.4154   15.9959 C.ar    1  UNL1        0.0014
     10 C          62.0383   89.6053   14.5085 C.ar    1  UNL1        0.0162
     11 C          63.0693   90.4618   13.8352 C.ar    1  UNL1        0.0679
     12 N          62.8511   90.5186   12.3522 N.am    1  UNL1       -0.2518
     13 C          63.6479   91.2559   11.3171 C.2     1  UNL1        0.2493
     14 O          63.1696   91.1113    9.9028 O.2     1  UNL1       -0.2727
     15 C          66.2689   93.9655   10.3460 C.2     1  UNL1        0.2371
     16 O          66.5313   94.6042   11.6777 O.2     1  UNL1       -0.2737
     17 N          65.4331   92.7228   10.2619 N.am    1  UNL1       -0.2959
     18 H          65.2609   92.3037    9.3878 H       1  UNL1        0.1499
     19 C          66.8422   94.5697    9.0985 C.3     1  UNL1        0.1316
     20 C          68.0569   93.9628    8.4610 C.3     1  UNL1        0.0270
     21 C          67.0530   96.8513    7.8738 C.3     1  UNL1        0.0862
     22 N          66.2009   95.7807    8.4884 N.3     1  UNL1       -0.2902
     23 H          65.5756   95.4451    7.7557 H       1  UNL1        0.1237
     24 C          67.3151   93.4283   14.8921 C.3     1  UNL1        0.0856
     25 C          68.5628   93.4214   15.7247 C.3     1  UNL1        0.0091
     26 C          69.2514   94.7124   16.0546 C.3     1  UNL1        0.0005
     27 C          69.1218   92.1233   16.2274 C.3     1  UNL1        0.0005
     28 C          61.6813   89.7342   11.8361 C.3     1  UNL1        0.1245
     29 C          61.8939   88.3726   11.2436 C.ar    1  UNL1       -0.0059
     30 C          62.8093   87.3953   11.9195 C.ar    1  UNL1       -0.0242
     31 C          63.2555   87.4197   12.5797 C.3     1  UNL1        0.0308
     32 C          63.0219   86.0337   11.3271 C.ar    1  UNL1       -0.0045
     33 C          62.3191   85.6495   10.0589 C.ar    1  UNL1       -0.0003
     34 C          61.4037   86.6268    9.3830 C.ar    1  UNL1       -0.0003
     35 C          60.7009   86.2426    8.1147 C.ar    1  UNL1       -0.0000
     36 C          59.7855   87.2200    7.4390 C.ar    1  UNL1       -0.0000
     37 C          59.5728   88.5816    8.0313 C.ar    1  UNL1       -0.0000
     38 C          60.2757   88.9658    9.2996 C.ar    1  UNL1       -0.0003
     39 C          61.1910   87.9884    9.9754 C.ar    1  UNL1       -0.0027
@<TRIPOS>BOND
     1    21    22    1
     2    22    19    1
     3    19    20    1
     4    19    15    1
     5    15    16    2
     6    15    17   am
     7     1    17    1
     8     1     2    1
     9     2     3    1
    10     3     4   am
    11     4     5    2
    12     4    24    1
    13    24    25    1
    14    25    26    1
    15    25    27    1
    16     3     6    1
    17     6     7   ar
    18     7     8   ar
    19     8     9   ar
    20     9    10   ar
    21    10    11   ar
    22    11    12    1
    23    12    28    1
    24    28    29    1
    25    29    30   ar
    26    30    31    1
    27    30    32   ar
    28    32    33   ar
    29    33    34   ar
    30    34    35   ar
    31    35    36   ar
    32    36    37   ar
    33    37    38   ar
    34    38    39   ar
    35    12    13   am
    36    13    14    2
    37    13     1    1
    38    11     6   ar
    39    39    29   ar
    40    39    34   ar
    41    22    23    1
    42    17    18    1
@<TRIPOS>MOLECULE
*****
 39 42 0 0 0
SMALL
GASTEIGER

@<TRIPOS>ATOM
      1 C          61.5998   86.4726   10.8093 C.3     1  UNL1        0.1695
      2 C          62.2626   85.2252   11.3141 C.3     1  UNL1        0.1271
      3 N          63.2140   85.0713   12.4635 N.am    1  UNL1       -0.2553
      4 C          63.7070   83.6777   12.7181 C.2     1  UNL1        0.2294
      5 O          64.6624   83.4140   13.8441 O.2     1  UNL1       -0.2745
      6 C          63.7375   86.1266   13.3921 C.ar    1  UNL1        0.0676
      7 C          64.6729   85.5454   14.4106 C.ar    1  UNL1        0.0162
      8 C          65.3097   86.4342   15.4374 C.ar    1  UNL1        0.0014
      9 C          65.0112   87.9042   15.4458 C.ar    1  UNL1        0.0014
     10 C          64.0758   88.4854   14.4274 C.ar    1  UNL1        0.0162
     11 C          63.4390   87.5966   13.4005 C.ar    1  UNL1        0.0679
     12 N          62.5432   88.3742   12.4824 N.am    1  UNL1       -0.2518
     13 C          61.7247   87.8741   11.3293 C.2     1  UNL1        0.2493
     14 O          60.9254   88.9126   10.5996 O.2     1  UNL1       -0.2727
     15 C          61.2477   85.8128    8.3212 C.2     1  UNL1        0.2371
     16 O          62.7110   85.5082    8.1949 O.2     1  UNL1       -0.2737
     17 N          60.6921   86.2950    9.6284 N.am    1  UNL1       -0.2959
     18 H          59.7317   86.4949    9.7113 H       1  UNL1        0.1499
     19 C          60.3400   85.6352    7.1403 C.3     1  UNL1        0.1316
     20 C          60.7357   84.7177    6.0215 C.3     1  UNL1        0.0270
     21 C          58.9886   87.8384    7.4047 C.3     1  UNL1        0.0862
     22 N          59.0367   86.3751    7.0782 N.3     1  UNL1       -0.2902
     23 H          58.6860   86.2743    6.1257 H       1  UNL1        0.1237
     24 C          63.2446   82.5476   11.8467 C.3     1  UNL1        0.0856
     25 C          62.5942   81.3440   12.4617 C.3     1  UNL1        0.0091
     26 C          61.7793   81.4889   13.7126 C.3     1  UNL1        0.0005
     27 C          62.7587   79.9955   11.8257 C.3     1  UNL1        0.0005
     28 C          62.4541   89.8469   12.7534 C.3     1  UNL1        0.1245
     29 C          63.4692   90.7808   12.1638 C.ar    1  UNL1       -0.0059
     30 C          63.4731   91.0493   10.6881 C.ar    1  UNL1       -0.0242
     31 C          63.0274   90.7956   10.0778 C.3     1  UNL1        0.0308
     32 C          64.4881   91.9832   10.0984 C.ar    1  UNL1       -0.0045
     33 C          65.4992   92.6485   10.9845 C.ar    1  UNL1       -0.0003
     34 C          65.4952   92.3799   12.4603 C.ar    1  UNL1       -0.0003
     35 C          66.5063   93.0452   13.3464 C.ar    1  UNL1       -0.0000
     36 C          66.5023   92.7766   14.8221 C.ar    1  UNL1       -0.0000
     37 C          65.4873   91.8427   15.4118 C.ar    1  UNL1       -0.0000
     38 C          64.4763   91.1775   14.5256 C.ar    1  UNL1       -0.0003
     39 C          64.4802   91.4460   13.0500 C.ar    1  UNL1       -0.0027
@<TRIPOS>BOND
     1    21    22    1
     2    22    19    1
     3    19    20    1
     4    19    15    1
     5    15    16    2
     6    15    17   am
     7     1    17    1
     8     1     2    1
     9     2     3    1
    10     3     4   am
    11     4     5    2
    12     4    24    1
    13    24    25    1
    14    25    26    1
    15    25    27    1
    16     3     6    1
    17     6     7   ar
    18     7     8   ar
    19     8     9   ar
    20     9    10   ar
    21    10    11   ar
    22    11    12    1
    23    12    28    1
    24    28    29    1
    25    29    30   ar
    26    30    31    1
    27    30    32   ar
    28    32    33   ar
    29    33    34   ar
    30    34    35   ar
    31    35    36   ar
    32    36    37   ar
    33    37    38   ar
    34    38    39   ar
    35    12    13   am
    36    13    14    2
    37    13     1    1
    38    11     6   ar
    39    39    29   ar
    40    39    34   ar
    41    22    23    1
    42    17    18    1
@<TRIPOS>MOLECULE
*****
 39 42 0 0 0
SMALL
GASTEIGER

@<TRIPOS>ATOM
      1 C          62.1358   87.9955   10.3674 C.3     1  UNL1        0.1695
      2 C          62.3704   86.5927   10.8439 C.3     1  UNL1        0.1271
      3 N          62.9616   86.1332   12.1437 N.am    1  UNL1       -0.2553
      4 C          63.0638   84.6475   12.3230 C.2     1  UNL1        0.2294
      5 O          63.6405   84.0824   13.5872 O.2     1  UNL1       -0.2745
      6 C          63.4642   86.9629   13.2879 C.ar    1  UNL1        0.0676
      7 C          63.9786   86.1029   14.4040 C.ar    1  UNL1        0.0162
      8 C          64.5285   86.7371   15.6471 C.ar    1  UNL1        0.0014
      9 C          64.5639   88.2313   15.7741 C.ar    1  UNL1        0.0014
     10 C          64.0495   89.0913   14.6580 C.ar    1  UNL1        0.0162
     11 C          63.4996   88.4571   13.4149 C.ar    1  UNL1        0.0679
     12 N          63.0413   89.4906   12.4290 N.am    1  UNL1       -0.2518
     13 C          62.4343   89.2852   11.0728 C.2     1  UNL1        0.2493
     14 O          62.0789   90.5346   10.3228 O.2     1  UNL1       -0.2727
     15 C          60.1315   88.6707    8.8584 C.2     1  UNL1        0.2371
     16 O          59.3561   89.0852   10.0738 O.2     1  UNL1       -0.2737
     17 N          61.5213   88.1258    9.0052 N.am    1  UNL1       -0.2959
     18 H          62.0302   87.8538    8.2076 H       1  UNL1        0.1499
     19 C          59.5170   88.8010    7.4963 C.3     1  UNL1        0.1316
     20 C          58.7350   87.6611    6.9141 C.3     1  UNL1        0.0270
     21 C          58.6732   90.4515    5.6759 C.3     1  UNL1        0.0862
     22 N          59.6846   90.0713    6.7163 N.3     1  UNL1       -0.2902
     23 H          59.7094   90.8324    7.3949 H       1  UNL1        0.1237
     24 C          62.5892   83.7267   11.2381 C.3     1  UNL1        0.0856
     25 C          63.3504   82.4703   10.9345 C.3     1  UNL1        0.0091
     26 C          62.8585   81.1516   11.4531 C.3     1  UNL1        0.0005
     27 C          64.6034   82.5327   10.1123 C.3     1  UNL1        0.0005
     28 C          63.2126   90.9183   12.8559 C.3     1  UNL1        0.1245
     29 C          64.4875   91.6458   12.5469 C.ar    1  UNL1       -0.0059
     30 C          64.8523   91.9482   11.1237 C.ar    1  UNL1       -0.0242
     31 C          64.5048   91.8056   10.4206 C.3     1  UNL1        0.0308
     32 C          66.1272   92.6757   10.8146 C.ar    1  UNL1       -0.0045
     33 C          67.0372   93.1007   11.9287 C.ar    1  UNL1       -0.0003
     34 C          66.6724   92.7982   13.3519 C.ar    1  UNL1       -0.0003
     35 C          67.5825   93.2232   14.4660 C.ar    1  UNL1       -0.0000
     36 C          67.2176   92.9207   15.8892 C.ar    1  UNL1       -0.0000
     37 C          65.9427   92.1932   16.1983 C.ar    1  UNL1       -0.0000
     38 C          65.0327   91.7683   15.0841 C.ar    1  UNL1       -0.0003
     39 C          65.3975   92.0707   13.6611 C.ar    1  UNL1       -0.0027
@<TRIPOS>BOND
     1    21    22    1
     2    22    19    1
     3    19    20    1
     4    19    15    1
     5    15    16    2
     6    15    17   am
     7     1    17    1
     8     1     2    1
     9     2     3    1
    10     3     4   am
    11     4     5    2
    12     4    24    1
    13    24    25    1
    14    25    26    1
    15    25    27    1
    16     3     6    1
    17     6     7   ar
    18     7     8   ar
    19     8     9   ar
    20     9    10   ar
    21    10    11   ar
    22    11    12    1
    23    12    28    1
    24    28    29    1
    25    29    30   ar
    26    30    31    1
    27    30    32   ar
    28    32    33   ar
    29    33    34   ar
    30    34    35   ar
    31    35    36   ar
    32    36    37   ar
    33    37    38   ar
    34    38    39   ar
    35    12    13   am
    36    13    14    2
    37    13     1    1
    38    11     6   ar
    39    39    29   ar
    40    39    34   ar
    41    22    23    1
    42    17    18    1
@<TRIPOS>MOLECULE
*****
 39 42 0 0 0
SMALL
GASTEIGER

@<TRIPOS>ATOM
      1 C          62.6008   85.8757   12.7127 C.3     1  UNL1        0.1695
      2 C          61.8010   86.3497   11.5356 C.3     1  UNL1        0.1271
      3 N          61.7894   87.7078   10.8988 N.am    1  UNL1       -0.2553
      4 C          60.8711   87.8676    9.7235 C.2     1  UNL1        0.2294
      5 O          60.7836   89.1863    9.0139 O.2     1  UNL1       -0.2745
      6 C          62.5744   88.9272   11.2818 C.ar    1  UNL1        0.0676
      7 C          62.2645   90.0844   10.3792 C.ar    1  UNL1        0.0162
      8 C          62.9452   91.4041   10.5910 C.ar    1  UNL1        0.0014
      9 C          63.9360   91.5666   11.7055 C.ar    1  UNL1        0.0014
     10 C          64.2460   90.4094   12.6081 C.ar    1  UNL1        0.0162
     11 C          63.5652   89.0897   12.3963 C.ar    1  UNL1        0.0679
     12 N          64.0155   88.0729   13.4029 N.am    1  UNL1       -0.2518
     13 C          63.5864   86.6425   13.5438 C.2     1  UNL1        0.2493
     14 O          64.2275   85.8779   14.6637 O.2     1  UNL1       -0.2727
     15 C          62.9003   83.3387   12.2392 C.2     1  UNL1        0.2371
     16 O          63.6281   83.6619   10.9680 O.2     1  UNL1       -0.2737
     17 N          62.3867   84.4456   13.1115 N.am    1  UNL1       -0.2959
     18 H          61.9091   84.2335   13.9459 H       1  UNL1        0.1499
     19 C          62.6863   81.9087   12.6380 C.3     1  UNL1        0.1316
     20 C          63.0075   80.8051   11.6742 C.3     1  UNL1        0.0270
     21 C          60.8534   80.8423   14.1392 C.3     1  UNL1        0.0862
     22 N          62.1509   81.5821   14.0006 N.3     1  UNL1       -0.2902
     23 H          62.8617   81.0205   14.4694 H       1  UNL1        0.1237
     24 C          60.0402   86.7088    9.2579 C.3     1  UNL1        0.0856
     25 C          59.8185   86.4863    7.7911 C.3     1  UNL1        0.0091
     26 C          58.8807   87.3766    7.0309 C.3     1  UNL1        0.0005
     27 C          60.5346   85.3736    7.0846 C.3     1  UNL1        0.0005
     28 C          65.0291   88.5495   14.4007 C.3     1  UNL1        0.1245
     29 C          64.7931   89.8212   15.1605 C.ar    1  UNL1       -0.0059
     30 C          63.5647   89.9715   16.0080 C.ar    1  UNL1       -0.0242
     31 C          62.9442   89.4989   16.1726 C.3     1  UNL1        0.0308
     32 C          63.3287   91.2431   16.7678 C.ar    1  UNL1       -0.0045
     33 C          64.3212   92.3644   16.6801 C.ar    1  UNL1       -0.0003
     34 C          65.5496   92.2141   15.8326 C.ar    1  UNL1       -0.0003
     35 C          66.5421   93.3354   15.7448 C.ar    1  UNL1       -0.0000
     36 C          67.7705   93.1850   14.8973 C.ar    1  UNL1       -0.0000
     37 C          68.0065   91.9134   14.1375 C.ar    1  UNL1       -0.0000
     38 C          67.0140   90.7921   14.2252 C.ar    1  UNL1       -0.0003
     39 C          65.7857   90.9425   15.0727 C.ar    1  UNL1       -0.0027
@<TRIPOS>BOND
     1    21    22    1
     2    22    19    1
     3    19    20    1
     4    19    15    1
     5    15    16    2
     6    15    17   am
     7     1    17    1
     8     1     2    1
     9     2     3    1
    10     3     4   am
    11     4     5    2
    12     4    24    1
    13    24    25    1
    14    25    26    1
    15    25    27    1
    16     3     6    1
    17     6     7   ar
    18     7     8   ar
    19     8     9   ar
    20     9    10   ar
    21    10    11   ar
    22    11    12    1
    23    12    28    1
    24    28    29    1
    25    29    30   ar
    26    30    31    1
    27    30    32   ar
    28    32    33   ar
    29    33    34   ar
    30    34    35   ar
    31    35    36   ar
    32    36    37   ar
    33    37    38   ar
    34    38    39   ar
    35    12    13   am
    36    13    14    2
    37    13     1    1
    38    11     6   ar
    39    39    29   ar
    40    39    34   ar
    41    22    23    1
    42    17    18    1
@<TRIPOS>MOLECULE
*****
 39 42 0 0 0
SMALL
GASTEIGER

@<TRIPOS>ATOM
      1 C          64.9013   91.9848   11.4861 C.3     1  UNL1        0.1695
      2 C          65.6302   92.3431   12.7472 C.3     1  UNL1        0.1271
      3 N          65.3206   91.9304   14.1557 N.am    1  UNL1       -0.2553
      4 C          66.2486   92.4606   15.2081 C.2     1  UNL1        0.2294
      5 O          66.0281   92.1079   16.6494 O.2     1  UNL1       -0.2745
      6 C          64.2057   91.0575   14.6510 C.ar    1  UNL1        0.0676
      7 C          64.2575   90.8953   16.1413 C.ar    1  UNL1        0.0162
      8 C          63.2286   90.0573   16.8406 C.ar    1  UNL1        0.0014
      9 C          62.1479   89.3816   16.0497 C.ar    1  UNL1        0.0014
     10 C          62.0961   89.5439   14.5594 C.ar    1  UNL1        0.0162
     11 C          63.1250   90.3818   13.8601 C.ar    1  UNL1        0.0679
     12 N          62.8924   90.4121   12.3786 N.am    1  UNL1       -0.2518
     13 C          63.6828   91.1255   11.3220 C.2     1  UNL1        0.2493
     14 O          63.1897   90.9573    9.9155 O.2     1  UNL1       -0.2727
     15 C          66.4533   93.6892   10.2876 C.2     1  UNL1        0.2371
     16 O          66.8770   94.2386   11.6176 O.2     1  UNL1       -0.2737
     17 N          65.4654   92.5623   10.2219 N.am    1  UNL1       -0.2959
     18 H          65.1873   92.2018    9.3491 H       1  UNL1        0.1499
     19 C          67.0174   94.2667    9.0234 C.3     1  UNL1        0.1316
     20 C          66.5662   95.6162    8.5487 C.3     1  UNL1        0.0270
     21 C          68.7769   92.3609    8.8747 C.3     1  UNL1        0.0862
     22 N          68.0327   93.4948    8.2340 N.3     1  UNL1       -0.2902
     23 H          67.5452   93.1077    7.4259 H       1  UNL1        0.1237
     24 C          67.3973   93.3436   14.8194 C.3     1  UNL1        0.0856
     25 C          68.6119   93.4235   15.6959 C.3     1  UNL1        0.0091
     26 C          69.2182   94.7573   16.0174 C.3     1  UNL1        0.0005
     27 C          69.2202   92.1697   16.2509 C.3     1  UNL1        0.0005
     28 C          61.7132   89.6248   11.8888 C.3     1  UNL1        0.1245
     29 C          61.9264   88.3498   11.1279 C.ar    1  UNL1       -0.0059
     30 C          61.4451   88.2320    9.7121 C.ar    1  UNL1       -0.0242
     31 C          61.0671   88.7252    9.2128 C.3     1  UNL1        0.0308
     32 C          61.6582   86.9570    8.9512 C.ar    1  UNL1       -0.0045
     33 C          62.3526   85.7999    9.6060 C.ar    1  UNL1       -0.0003
     34 C          62.8340   85.9177   11.0218 C.ar    1  UNL1       -0.0003
     35 C          63.5284   84.7606   11.6767 C.ar    1  UNL1       -0.0000
     36 C          64.0097   84.8785   13.0925 C.ar    1  UNL1       -0.0000
     37 C          63.7966   86.1535   13.8534 C.ar    1  UNL1       -0.0000
     38 C          63.1021   87.3106   13.1985 C.ar    1  UNL1       -0.0003
     39 C          62.6209   87.1927   11.7828 C.ar    1  UNL1       -0.0027
@<TRIPOS>BOND
     1    21    22    1
     2    22    19    1
     3    19    20    1
     4    19    15    1
     5    15    16    2
     6    15    17   am
     7     1    17    1
     8     1     2    1
     9     2     3    1
    10     3     4   am
    11     4     5    2
    12     4    24    1
    13    24    25    1
    14    25    26    1
    15    25    27    1
    16     3     6    1
    17     6     7   ar
    18     7     8   ar
    19     8     9   ar
    20     9    10   ar
    21    10    11   ar
    22    11    12    1
    23    12    28    1
    24    28    29    1
    25    29    30   ar
    26    30    31    1
    27    30    32   ar
    28    32    33   ar
    29    33    34   ar
    30    34    35   ar
    31    35    36   ar
    32    36    37   ar
    33    37    38   ar
    34    38    39   ar
    35    12    13   am
    36    13    14    2
    37    13     1    1
    38    11     6   ar
    39    39    29   ar
    40    39    34   ar
    41    22    23    1
    42    17    18    1
@<TRIPOS>MOLECULE
*****
 39 42 0 0 0
SMALL
GASTEIGER

@<TRIPOS>ATOM
      1 C          63.3697   90.1619   14.8134 C.3     1  UNL1        0.1695
      2 C          64.6057   90.9885   15.0114 C.3     1  UNL1        0.1271
      3 N          65.3455   91.8201   14.0059 N.am    1  UNL1       -0.2553
      4 C          66.5593   92.5360   14.5201 C.2     1  UNL1        0.2294
      5 O          67.3712   93.3947   13.5963 O.2     1  UNL1       -0.2745
      6 C          65.0323   92.0305   12.5541 C.ar    1  UNL1        0.0676
      7 C          66.0313   92.9413   11.9043 C.ar    1  UNL1        0.0162
      8 C          65.8998   93.2828   10.4497 C.ar    1  UNL1        0.0014
      9 C          64.7692   92.7136    9.6448 C.ar    1  UNL1        0.0014
     10 C          63.7702   91.8028   10.2946 C.ar    1  UNL1        0.0162
     11 C          63.9017   91.4613   11.7493 C.ar    1  UNL1        0.0679
     12 N          62.8052   90.5410   12.1975 N.am    1  UNL1       -0.2518
     13 C          62.5684   89.9627   13.5611 C.2     1  UNL1        0.2493
     14 O          61.3722   89.0669   13.6894 O.2     1  UNL1       -0.2727
     15 C          63.1860   87.9854   16.2201 C.2     1  UNL1        0.2371
     16 O          64.0041   87.2549   15.1968 O.2     1  UNL1       -0.2737
     17 N          62.8689   89.4389   16.0285 N.am    1  UNL1       -0.2959
     18 H          62.3319   89.9183   16.7001 H       1  UNL1        0.1499
     19 C          62.6851   87.2623   17.4352 C.3     1  UNL1        0.1316
     20 C          62.9966   87.7909   18.8040 C.3     1  UNL1        0.0270
     21 C          62.3531   84.9107   16.3819 C.3     1  UNL1        0.0862
     22 N          61.8729   86.0107   17.2814 N.3     1  UNL1       -0.2902
     23 H          61.7743   85.6074   18.2131 H       1  UNL1        0.1237
     24 C          66.9611   92.3931   15.9583 C.3     1  UNL1        0.0856
     25 C          68.3670   92.7044   16.3786 C.3     1  UNL1        0.0091
     26 C          69.2529   91.6122   16.9003 C.3     1  UNL1        0.0005
     27 C          68.8868   94.1078   16.2773 C.3     1  UNL1        0.0005
     28 C          61.8144   90.1469   11.1425 C.3     1  UNL1        0.1245
     29 C          61.7726   88.7330   10.6434 C.ar    1  UNL1       -0.0059
     30 C          62.5769   87.6706   11.3322 C.ar    1  UNL1       -0.0242
     31 C          63.0698   87.6679   11.9587 C.3     1  UNL1        0.0308
     32 C          62.5352   86.2566   10.8332 C.ar    1  UNL1       -0.0045
     33 C          61.6892   85.9051    9.6454 C.ar    1  UNL1       -0.0003
     34 C          60.8849   86.9676    8.9567 C.ar    1  UNL1       -0.0003
     35 C          60.0389   86.6160    7.7689 C.ar    1  UNL1       -0.0000
     36 C          59.2346   87.6785    7.0803 C.ar    1  UNL1       -0.0000
     37 C          59.2764   89.0925    7.5792 C.ar    1  UNL1       -0.0000
     38 C          60.1224   89.4439    8.7670 C.ar    1  UNL1       -0.0003
     39 C          60.9266   88.3815    9.4557 C.ar    1  UNL1       -0.0027
@<TRIPOS>BOND
     1    21    22    1
     2    22    19    1
     3    19    20    1
     4    19    15    1
     5    15    16    2
     6    15    17   am
     7     1    17    1
     8     1     2    1
     9     2     3    1
    10     3     4   am
    11     4     5    2
    12     4    24    1
    13    24    25    1
    14    25    26    1
    15    25    27    1
    16     3     6    1
    17     6     7   ar
    18     7     8   ar
    19     8     9   ar
    20     9    10   ar
    21    10    11   ar
    22    11    12    1
    23    12    28    1
    24    28    29    1
    25    29    30   ar
    26    30    31    1
    27    30    32   ar
    28    32    33   ar
    29    33    34   ar
    30    34    35   ar
    31    35    36   ar
    32    36    37   ar
    33    37    38   ar
    34    38    39   ar
    35    12    13   am
    36    13    14    2
    37    13     1    1
    38    11     6   ar
    39    39    29   ar
    40    39    34   ar
    41    22    23    1
    42    17    18    1
@<TRIPOS>MOLECULE
*****
 39 42 0 0 0
SMALL
GASTEIGER

@<TRIPOS>ATOM
      1 C          64.7117   89.7837   14.0069 C.3     1  UNL1        0.1695
      2 C          65.5294   90.9157   14.5545 C.3     1  UNL1        0.1271
      3 N          65.8835   92.2168   13.8974 N.am    1  UNL1       -0.2553
      4 C          66.7250   93.1511   14.7154 C.2     1  UNL1        0.2294
      5 O          67.1353   94.4793   14.1518 O.2     1  UNL1       -0.2745
      6 C          65.5075   92.7073   12.5306 C.ar    1  UNL1        0.0676
      7 C          66.0710   94.0716   12.2637 C.ar    1  UNL1        0.0162
      8 C          65.8113   94.7462   10.9495 C.ar    1  UNL1        0.0014
      9 C          64.9882   94.0566    9.9021 C.ar    1  UNL1        0.0014
     10 C          64.4248   92.6924   10.1690 C.ar    1  UNL1        0.0162
     11 C          64.6844   92.0177   11.4833 C.ar    1  UNL1        0.0679
     12 N          64.0341   90.6674   11.5440 N.am    1  UNL1       -0.2518
     13 C          64.0462   89.6731   12.6671 C.2     1  UNL1        0.2493
     14 O          63.2934   88.4000   12.4174 O.2     1  UNL1       -0.2727
     15 C          63.3540   88.5410   15.8405 C.2     1  UNL1        0.2371
     16 O          62.3469   89.6527   15.8483 O.2     1  UNL1       -0.2737
     17 N          64.5363   88.6065   14.9198 N.am    1  UNL1       -0.2959
     18 H          65.1972   87.8768   14.9147 H       1  UNL1        0.1499
     19 C          63.1785   87.3638   16.7534 C.3     1  UNL1        0.1316
     20 C          62.7143   87.5717   18.1646 C.3     1  UNL1        0.0270
     21 C          62.3706   84.9568   16.2023 C.3     1  UNL1        0.0862
     22 N          63.4674   85.9787   16.2552 N.3     1  UNL1       -0.2902
     23 H          63.8251   86.0762   15.3050 H       1  UNL1        0.1237
     24 C          67.1563   92.7572   16.0970 C.3     1  UNL1        0.0856
     25 C          68.6095   92.7911   16.4674 C.3     1  UNL1        0.0091
     26 C          69.2752   91.5593   17.0053 C.3     1  UNL1        0.0005
     27 C          69.3968   94.0569   16.2998 C.3     1  UNL1        0.0005
     28 C          63.2707   90.2570   10.3198 C.3     1  UNL1        0.1245
     29 C          61.9151   89.6295   10.4564 C.ar    1  UNL1       -0.0059
     30 C          60.8168   90.3642   11.1665 C.ar    1  UNL1       -0.0242
     31 C          60.7673   91.0744   11.5250 C.3     1  UNL1        0.0308
     32 C          59.4612   89.7368   11.3031 C.ar    1  UNL1       -0.0045
     33 C          59.2038   88.3748   10.7297 C.ar    1  UNL1       -0.0003
     34 C          60.3021   87.6402   10.0196 C.ar    1  UNL1       -0.0003
     35 C          60.0448   86.2782    9.4462 C.ar    1  UNL1       -0.0000
     36 C          61.1431   85.5437    8.7362 C.ar    1  UNL1       -0.0000
     37 C          62.4987   86.1711    8.5995 C.ar    1  UNL1       -0.0000
     38 C          62.7560   87.5331    9.1729 C.ar    1  UNL1       -0.0003
     39 C          61.6578   88.2676    9.8830 C.ar    1  UNL1       -0.0027
@<TRIPOS>BOND
     1    21    22    1
     2    22    19    1
     3    19    20    1
     4    19    15    1
     5    15    16    2
     6    15    17   am
     7     1    17    1
     8     1     2    1
     9     2     3    1
    10     3     4   am
    11     4     5    2
    12     4    24    1
    13    24    25    1
    14    25    26    1
    15    25    27    1
    16     3     6    1
    17     6     7   ar
    18     7     8   ar
    19     8     9   ar
    20     9    10   ar
    21    10    11   ar
    22    11    12    1
    23    12    28    1
    24    28    29    1
    25    29    30   ar
    26    30    31    1
    27    30    32   ar
    28    32    33   ar
    29    33    34   ar
    30    34    35   ar
    31    35    36   ar
    32    36    37   ar
    33    37    38   ar
    34    38    39   ar
    35    12    13   am
    36    13    14    2
    37    13     1    1
    38    11     6   ar
    39    39    29   ar
    40    39    34   ar
    41    22    23    1
    42    17    18    1
@<TRIPOS>MOLECULE
*****
 39 42 0 0 0
SMALL
GASTEIGER

@<TRIPOS>ATOM
      1 C          62.0584   89.2565    9.6360 C.3     1  UNL1        0.1695
      2 C          62.8734   90.3123   10.3226 C.3     1  UNL1        0.1271
      3 N          63.5809   90.2361   11.6430 N.am    1  UNL1       -0.2553
      4 C          64.3186   91.4744   12.0584 C.2     1  UNL1        0.2294
      5 O          65.0599   91.5040   13.3621 O.2     1  UNL1       -0.2745
      6 C          63.6483   89.0856   12.6031 C.ar    1  UNL1        0.0676
      7 C          64.4653   89.4288   13.8133 C.ar    1  UNL1        0.0162
      8 C          64.6588   88.4133   14.9002 C.ar    1  UNL1        0.0014
      9 C          64.0352   87.0546   14.7769 C.ar    1  UNL1        0.0014
     10 C          63.2182   86.7114   13.5667 C.ar    1  UNL1        0.0162
     11 C          63.0248   87.7269   12.4798 C.ar    1  UNL1        0.0679
     12 N          62.1799   87.1833   11.3659 N.am    1  UNL1       -0.2518
     13 C          61.7498   87.8639   10.1004 C.2     1  UNL1        0.2493
     14 O          60.8985   87.0437    9.1771 O.2     1  UNL1       -0.2727
     15 C          60.0027   89.4947    8.0653 C.2     1  UNL1        0.2371
     16 O          59.1137   88.9567    9.1472 O.2     1  UNL1       -0.2737
     17 N          61.4750   89.6446    8.3098 N.am    1  UNL1       -0.2959
     18 H          62.0584   89.9977    7.5997 H       1  UNL1        0.1499
     19 C          59.4193   89.8829    6.7391 C.3     1  UNL1        0.1316
     20 C          57.9951   89.5395    6.4169 C.3     1  UNL1        0.0270
     21 C          59.6197   91.5786    4.7809 C.3     1  UNL1        0.0862
     22 N          60.2600   90.6144    5.7351 N.3     1  UNL1       -0.2902
     23 H          60.9569   91.1406    6.2621 H       1  UNL1        0.1237
     24 C          64.3150   92.6831   11.1701 C.3     1  UNL1        0.0856
     25 C          65.6093   93.3424   10.7955 C.3     1  UNL1        0.0091
     26 C          65.6973   94.8383   10.7298 C.3     1  UNL1        0.0005
     27 C          66.8154   92.5057   10.4867 C.3     1  UNL1        0.0005
     28 C          61.7018   85.7723   11.5408 C.3     1  UNL1        0.1245
     29 C          62.6091   84.6258   11.2051 C.ar    1  UNL1       -0.0059
     30 C          63.2430   84.5438    9.8481 C.ar    1  UNL1       -0.0242
     31 C          63.2166   85.0014    9.1959 C.3     1  UNL1        0.0308
     32 C          64.1503   83.3974    9.5123 C.ar    1  UNL1       -0.0045
     33 C          64.4235   82.3332   10.5334 C.ar    1  UNL1       -0.0003
     34 C          63.7895   82.4152   11.8904 C.ar    1  UNL1       -0.0003
     35 C          64.0627   81.3510   12.9115 C.ar    1  UNL1       -0.0000
     36 C          63.4286   81.4331   14.2684 C.ar    1  UNL1       -0.0000
     37 C          62.5214   82.5795   14.6042 C.ar    1  UNL1       -0.0000
     38 C          62.2482   83.6437   13.5831 C.ar    1  UNL1       -0.0003
     39 C          62.8822   83.5616   12.2262 C.ar    1  UNL1       -0.0027
@<TRIPOS>BOND
     1    21    22    1
     2    22    19    1
     3    19    20    1
     4    19    15    1
     5    15    16    2
     6    15    17   am
     7     1    17    1
     8     1     2    1
     9     2     3    1
    10     3     4   am
    11     4     5    2
    12     4    24    1
    13    24    25    1
    14    25    26    1
    15    25    27    1
    16     3     6    1
    17     6     7   ar
    18     7     8   ar
    19     8     9   ar
    20     9    10   ar
    21    10    11   ar
    22    11    12    1
    23    12    28    1
    24    28    29    1
    25    29    30   ar
    26    30    31    1
    27    30    32   ar
    28    32    33   ar
    29    33    34   ar
    30    34    35   ar
    31    35    36   ar
    32    36    37   ar
    33    37    38   ar
    34    38    39   ar
    35    12    13   am
    36    13    14    2
    37    13     1    1
    38    11     6   ar
    39    39    29   ar
    40    39    34   ar
    41    22    23    1
    42    17    18    1
@<TRIPOS>MOLECULE
*****
 39 42 0 0 0
SMALL
GASTEIGER

@<TRIPOS>ATOM
      1 C          65.0590   91.6749   11.8752 C.3     1  UNL1        0.1695
      2 C          65.5377   92.2927   13.1555 C.3     1  UNL1        0.1271
      3 N          65.1880   91.9147   14.5643 N.am    1  UNL1       -0.2553
      4 C          65.8392   92.7342   15.6387 C.2     1  UNL1        0.2294
      5 O          65.5571   92.4389   17.0821 O.2     1  UNL1       -0.2745
      6 C          64.2732   90.8256   15.0409 C.ar    1  UNL1        0.0676
      7 C          64.2018   90.7862   16.5386 C.ar    1  UNL1        0.0162
      8 C          63.3393   89.7667   17.2217 C.ar    1  UNL1        0.0014
      9 C          62.5483   88.7866   16.4071 C.ar    1  UNL1        0.0014
     10 C          62.6198   88.8259   14.9093 C.ar    1  UNL1        0.0162
     11 C          63.4822   89.8455   14.2262 C.ar    1  UNL1        0.0679
     12 N          63.4107   89.7124   12.7338 N.am    1  UNL1       -0.2518
     13 C          64.1123   90.5265   11.6875 C.2     1  UNL1        0.2493
     14 O          63.8301   90.1414   10.2655 O.2     1  UNL1       -0.2727
     15 C          67.0677   92.5558   10.4827 C.2     1  UNL1        0.2371
     16 O          67.9981   92.2139   11.6086 O.2     1  UNL1       -0.2737
     17 N          65.5982   92.2862   10.6160 N.am    1  UNL1       -0.2959
     18 H          64.9876   92.5106    9.8771 H       1  UNL1        0.1499
     19 C          67.6069   93.1671    9.2236 C.3     1  UNL1        0.1316
     20 C          68.7331   92.5017    8.4893 C.3     1  UNL1        0.0270
     21 C          66.9588   95.6580    9.5774 C.3     1  UNL1        0.0862
     22 N          67.0201   94.4439    8.6987 N.3     1  UNL1       -0.2902
     23 H          67.5657   94.7026    7.8767 H       1  UNL1        0.1237
     24 C          66.7725   93.8491   15.2698 C.3     1  UNL1        0.0856
     25 C          68.2539   93.6682   15.4214 C.3     1  UNL1        0.0091
     26 C          68.9071   92.4030   14.9497 C.3     1  UNL1        0.0005
     27 C          69.0819   94.7526   16.0446 C.3     1  UNL1        0.0005
     28 C          62.5195   88.6208   12.2198 C.3     1  UNL1        0.1245
     29 C          61.5541   88.9023   11.1067 C.ar    1  UNL1       -0.0059
     30 C          60.7284   90.1544   11.1290 C.ar    1  UNL1       -0.0242
     31 C          60.6674   90.7687   11.6333 C.3     1  UNL1        0.0308
     32 C          59.7630   90.4360   10.0160 C.ar    1  UNL1       -0.0045
     33 C          59.6234   89.4655    8.8808 C.ar    1  UNL1       -0.0003
     34 C          60.4492   88.2134    8.8586 C.ar    1  UNL1       -0.0003
     35 C          60.3095   87.2430    7.7233 C.ar    1  UNL1       -0.0000
     36 C          61.1353   85.9909    7.7012 C.ar    1  UNL1       -0.0000
     37 C          62.1007   85.7093    8.8142 C.ar    1  UNL1       -0.0000
     38 C          62.2402   86.6798    9.9494 C.ar    1  UNL1       -0.0003
     39 C          61.4145   87.9318    9.9716 C.ar    1  UNL1       -0.0027
@<TRIPOS>BOND
     1    21    22    1
     2    22    19    1
     3    19    20    1
     4    19    15    1
     5    15    16    2
     6    15    17   am
     7     1    17    1
     8     1     2    1
     9     2     3    1
    10     3     4   am
    11     4     5    2
    12     4    24    1
    13    24    25    1
    14    25    26    1
    15    25    27    1
    16     3     6    1
    17     6     7   ar
    18     7     8   ar
    19     8     9   ar
    20     9    10   ar
    21    10    11   ar
    22    11    12    1
    23    12    28    1
    24    28    29    1
    25    29    30   ar
    26    30    31    1
    27    30    32   ar
    28    32    33   ar
    29    33    34   ar
    30    34    35   ar
    31    35    36   ar
    32    36    37   ar
    33    37    38   ar
    34    38    39   ar
    35    12    13   am
    36    13    14    2
    37    13     1    1
    38    11     6   ar
    39    39    29   ar
    40    39    34   ar
    41    22    23    1
    42    17    18    1
