@<TRIPOS>MOLECULE
*****
 49 52 0 0 0
SMALL
GASTEIGER

@<TRIPOS>ATOM
      1 N          63.1871   90.6548   11.1375 N.ar    1  UNL1       -0.2470
      2 C          63.0244   89.7628   12.3324 C.ar    1  UNL1        0.2654
      3 O          62.0334   88.6373   12.2988 O.2     1  UNL1       -0.2668
      4 C          63.8527   89.9964   13.5609 C.ar    1  UNL1        0.0703
      5 C          64.8437   91.1219   13.5946 C.ar    1  UNL1        0.0465
      6 C          65.3837   91.1874   14.5431 C.3     1  UNL1        0.0503
      7 N          65.0064   92.0139   12.3996 N.ar    1  UNL1       -0.2806
      8 C          64.1781   91.7803   11.1711 C.ar    1  UNL1        0.3338
      9 O          64.3408   92.6723    9.9761 O.2     1  UNL1       -0.2462
     10 C          63.6900   89.1044   14.7560 C.ar    1  UNL1        0.0362
     11 C          63.1803   89.6685   16.0490 C.ar    1  UNL1        0.0026
     12 C          63.0176   88.7766   17.2440 C.ar    1  UNL1        0.0033
     13 C          63.3646   87.3205   17.1459 C.ar    1  UNL1        0.0392
     14 C          63.8742   86.7564   15.8529 C.ar    1  UNL1        0.1658
     15 C          64.0369   87.6484   14.6578 C.ar    1  UNL1        0.1739
     16 F          64.5465   87.0843   13.3648 F       1  UNL1       -0.2010
     17 O          64.2211   85.3004   15.7548 O.3     1  UNL1       -0.4731
     18 C          63.6713   84.4725   14.6313 C.3     1  UNL1        0.2069
     19 C          62.3402   83.7970   14.7792 C.3     1  UNL1        0.0644
     20 C          62.2020   82.3359   14.4692 C.3     1  UNL1        0.0727
     21 N          62.0829   81.8794   13.0453 N.3     1  UNL1       -0.2927
     22 H          61.4630   82.5393   12.5754 H       1  UNL1        0.1236
     23 C          63.3104   81.7556   12.1921 C.3     1  UNL1        0.1110
     24 C          63.6450   82.8289   11.1991 C.2     1  UNL1        0.0663
     25 O          64.7614   82.6221   10.2189 O.co2   1  UNL1       -0.5477
     26 O          62.8631   84.1090   11.1863 O.co2   1  UNL1       -0.5477
     27 C          62.3589   90.4212    9.9088 C.3     1  UNL1        0.1337
     28 C          61.0131   89.7688   10.0244 C.3     1  UNL1        0.1000
     29 C          60.7271   88.5016    9.2744 C.ar    1  UNL1       -0.0061
     30 C          61.6707   87.3402    9.3768 C.ar    1  UNL1       -0.0029
     31 C          61.3846   86.0731    8.6268 C.ar    1  UNL1       -0.0003
     32 C          60.1548   85.9674    7.7744 C.ar    1  UNL1       -0.0000
     33 C          59.2112   87.1288    7.6720 C.ar    1  UNL1       -0.0003
     34 C          59.4973   88.3959    8.4220 C.ar    1  UNL1       -0.0029
     35 C          59.2667   89.5567   11.9362 C.3     1  UNL1        0.0861
     36 N          59.9534   90.3836   10.8899 N.3     1  UNL1       -0.2924
     37 H          60.3878   91.1694   11.3739 H       1  UNL1        0.1236
     38 C          65.9973   93.1394   12.4333 C.3     1  UNL1        0.1391
     39 C          66.8468   93.4270   11.2309 C.ar    1  UNL1        0.0319
     40 C          67.7871   92.3810   10.7094 C.ar    1  UNL1        0.1379
     41 F          67.9446   91.3773   11.1136 F       1  UNL1       -0.2044
     42 C          68.6365   92.6686    9.5070 C.ar    1  UNL1        0.0294
     43 C          68.5457   94.0021    8.8261 C.ar    1  UNL1        0.0022
     44 C          67.6055   95.0480    9.3476 C.ar    1  UNL1        0.0037
     45 C          66.7560   94.7604   10.5500 C.ar    1  UNL1        0.0714
     46 C          65.8157   95.8063   11.0715 C.3     1  UNL1        0.4184
     47 F          64.8755   96.8522   11.5929 F       1  UNL1       -0.1659
     48 F          66.4964   95.7524   12.4070 F       1  UNL1       -0.1659
     49 F          65.1351   95.8603    9.7359 F       1  UNL1       -0.1659
@<TRIPOS>UNITY_ATOM_ATTR
25 1
charge -1
@<TRIPOS>BOND
     1    35    36    1
     2    36    28    1
     3    28    27    1
     4    27     1    1
     5     1     2   ar
     6     2     3    2
     7     2     4   ar
     8     4    10    1
     9    10    11   ar
    10    11    12   ar
    11    12    13   ar
    12    13    14   ar
    13    14    17    1
    14    17    18    1
    15    18    19    1
    16    19    20    1
    17    20    21    1
    18    21    23    1
    19    23    24    1
    20    24    25   ar
    21    24    26   ar
    22    14    15   ar
    23    15    16    1
    24     4     5   ar
    25     5     6    1
    26     5     7   ar
    27     7    38    1
    28    38    39    1
    29    39    40   ar
    30    40    41    1
    31    40    42   ar
    32    42    43   ar
    33    43    44   ar
    34    44    45   ar
    35    45    46    1
    36    46    47    1
    37    46    48    1
    38    46    49    1
    39     7     8   ar
    40     8     9    2
    41    28    29    1
    42    29    30   ar
    43    30    31   ar
    44    31    32   ar
    45    32    33   ar
    46    33    34   ar
    47     8     1   ar
    48    34    29   ar
    49    15    10   ar
    50    45    39   ar
    51    36    37    1
    52    21    22    1
@<TRIPOS>MOLECULE
*****
 49 52 0 0 0
SMALL
GASTEIGER

@<TRIPOS>ATOM
      1 N          63.5433   86.4901   13.2751 N.ar    1  UNL1       -0.2470
      2 C          63.0417   85.9799   11.9568 C.ar    1  UNL1        0.2654
      3 O          63.0409   84.5068   11.6738 O.2     1  UNL1       -0.2668
      4 C          62.5409   86.9427   10.9214 C.ar    1  UNL1        0.0703
      5 C          62.5416   88.4158   11.2044 C.ar    1  UNL1        0.0465
      6 C          62.1535   89.0107   10.3730 C.3     1  UNL1        0.0503
      7 N          63.0432   88.9260   12.5227 N.ar    1  UNL1       -0.2806
      8 C          63.5440   87.9631   13.5581 C.ar    1  UNL1        0.3338
      9 O          64.0456   88.4733   14.8765 O.2     1  UNL1       -0.2462
     10 C          62.0393   86.4325    9.6030 C.ar    1  UNL1        0.0362
     11 C          62.9270   85.5861    8.7395 C.ar    1  UNL1        0.0026
     12 C          62.4254   85.0760    7.4211 C.ar    1  UNL1        0.0033
     13 C          61.0362   85.4122    6.9662 C.ar    1  UNL1        0.0392
     14 C          60.1485   86.2586    7.8297 C.ar    1  UNL1        0.1658
     15 C          60.6501   86.7688    9.1481 C.ar    1  UNL1        0.1739
     16 F          59.7624   87.6152   10.0116 F       1  UNL1       -0.2010
     17 O          58.7592   86.5948    7.3748 O.3     1  UNL1       -0.4731
     18 C          58.3417   88.0289    7.2371 C.3     1  UNL1        0.2069
     19 C          59.3342   89.0591    6.7859 C.3     1  UNL1        0.0644
     20 C          58.8864   90.2096    5.9340 C.3     1  UNL1        0.0727
     21 N          59.9011   91.0641    5.2341 N.3     1  UNL1       -0.2927
     22 H          60.3871   90.4606    4.5707 H       1  UNL1        0.1236
     23 C          59.4612   92.2791    4.4723 C.3     1  UNL1        0.1110
     24 C          60.1863   92.6846    3.2234 C.2     1  UNL1        0.0663
     25 O          61.6482   92.3838    3.0738 O.co2   1  UNL1       -0.5477
     26 O          59.4496   93.3910    2.1241 O.co2   1  UNL1       -0.5477
     27 C          64.0441   85.5272   14.3106 C.3     1  UNL1        0.1337
     28 C          63.0847   84.6070   15.0054 C.3     1  UNL1        0.1000
     29 C          62.9206   83.1946   14.5274 C.ar    1  UNL1       -0.0061
     30 C          64.0934   82.4556   13.9545 C.ar    1  UNL1       -0.0029
     31 C          63.9293   81.0433   13.4766 C.ar    1  UNL1       -0.0003
     32 C          62.5922   80.3701   13.5715 C.ar    1  UNL1       -0.0000
     33 C          61.4194   81.1090   14.1444 C.ar    1  UNL1       -0.0003
     34 C          61.5836   82.5213   14.6224 C.ar    1  UNL1       -0.0029
     35 C          62.9067   86.0564   17.1543 C.3     1  UNL1        0.0861
     36 N          62.2895   85.0990   16.1782 N.3     1  UNL1       -0.2924
     37 H          61.4604   85.5574   15.8003 H       1  UNL1        0.1236
     38 C          63.0440   90.3991   12.8057 C.3     1  UNL1        0.1391
     39 C          64.2073   91.2442   12.3786 C.ar    1  UNL1        0.0319
     40 C          64.3625   91.6340   10.9384 C.ar    1  UNL1        0.1379
     41 F          63.7007   91.3678   10.1097 F       1  UNL1       -0.2044
     42 C          65.5258   92.4791   10.5114 C.ar    1  UNL1        0.0294
     43 C          66.5339   92.9346   11.5244 C.ar    1  UNL1        0.0022
     44 C          66.3787   92.5449   12.9645 C.ar    1  UNL1        0.0037
     45 C          65.2154   91.6997   13.3917 C.ar    1  UNL1        0.0714
     46 C          65.0602   91.3100   14.8318 C.3     1  UNL1        0.4184
     47 F          64.9050   90.9203   16.2719 F       1  UNL1       -0.1659
     48 F          63.6529   91.8288   14.8206 F       1  UNL1       -0.1659
     49 F          66.4675   90.7911   14.8431 F       1  UNL1       -0.1659
@<TRIPOS>UNITY_ATOM_ATTR
25 1
charge -1
@<TRIPOS>BOND
     1    35    36    1
     2    36    28    1
     3    28    27    1
     4    27     1    1
     5     1     2   ar
     6     2     3    2
     7     2     4   ar
     8     4    10    1
     9    10    11   ar
    10    11    12   ar
    11    12    13   ar
    12    13    14   ar
    13    14    17    1
    14    17    18    1
    15    18    19    1
    16    19    20    1
    17    20    21    1
    18    21    23    1
    19    23    24    1
    20    24    25   ar
    21    24    26   ar
    22    14    15   ar
    23    15    16    1
    24     4     5   ar
    25     5     6    1
    26     5     7   ar
    27     7    38    1
    28    38    39    1
    29    39    40   ar
    30    40    41    1
    31    40    42   ar
    32    42    43   ar
    33    43    44   ar
    34    44    45   ar
    35    45    46    1
    36    46    47    1
    37    46    48    1
    38    46    49    1
    39     7     8   ar
    40     8     9    2
    41    28    29    1
    42    29    30   ar
    43    30    31   ar
    44    31    32   ar
    45    32    33   ar
    46    33    34   ar
    47     8     1   ar
    48    34    29   ar
    49    15    10   ar
    50    45    39   ar
    51    36    37    1
    52    21    22    1
@<TRIPOS>MOLECULE
*****
 49 52 0 0 0
SMALL
GASTEIGER

@<TRIPOS>ATOM
      1 N          61.7194   87.1741   11.8132 N.ar    1  UNL1       -0.2470
      2 C          62.1088   88.3336   12.6815 C.ar    1  UNL1        0.2654
      3 O          61.3811   89.6395   12.5596 O.2     1  UNL1       -0.2668
      4 C          63.2260   88.1871   13.6716 C.ar    1  UNL1        0.0703
      5 C          63.9538   86.8812   13.7935 C.ar    1  UNL1        0.0465
      6 C          64.7448   86.9018   14.5482 C.3     1  UNL1        0.0503
      7 N          63.5644   85.7217   12.9252 N.ar    1  UNL1       -0.2806
      8 C          62.4472   85.8682   11.9351 C.ar    1  UNL1        0.3338
      9 O          62.0578   84.7086   11.0668 O.2     1  UNL1       -0.2462
     10 C          63.6155   89.3467   14.5399 C.ar    1  UNL1        0.0362
     11 C          63.1943   89.3806   15.9792 C.ar    1  UNL1        0.0026
     12 C          63.5838   90.5400   16.8475 C.ar    1  UNL1        0.0033
     13 C          64.3944   91.6656   16.2766 C.ar    1  UNL1        0.0392
     14 C          64.8156   91.6317   14.8373 C.ar    1  UNL1        0.1658
     15 C          64.4261   90.4722   13.9690 C.ar    1  UNL1        0.1739
     16 F          64.8473   90.4383   12.5297 F       1  UNL1       -0.2010
     17 O          65.6261   92.7573   14.2663 O.3     1  UNL1       -0.4731
     18 C          67.0420   92.9650   14.7158 C.3     1  UNL1        0.2069
     19 C          68.1386   92.1040   14.1622 C.3     1  UNL1        0.0644
     20 C          68.2362   91.8724   12.6835 C.3     1  UNL1        0.0727
     21 N          67.3468   92.6327   11.7450 N.3     1  UNL1       -0.2927
     22 H          67.6390   93.6090   11.7883 H       1  UNL1        0.1236
     23 C          67.2957   92.2601   10.2928 C.3     1  UNL1        0.1110
     24 C          68.2044   92.9395    9.3118 C.2     1  UNL1        0.0663
     25 O          68.5108   94.4003    9.4604 O.co2   1  UNL1       -0.5477
     26 O          68.8070   92.1580    8.1820 O.co2   1  UNL1       -0.5477
     27 C          60.6022   87.3205   10.8231 C.3     1  UNL1        0.1337
     28 C          60.9075   87.6400    9.3897 C.3     1  UNL1        0.1000
     29 C          61.3447   86.5511    8.4552 C.ar    1  UNL1       -0.0061
     30 C          60.3542   85.9219    7.5210 C.ar    1  UNL1       -0.0029
     31 C          60.7914   84.8330    6.5866 C.ar    1  UNL1       -0.0003
     32 C          62.2193   84.3734    6.5864 C.ar    1  UNL1       -0.0000
     33 C          63.2099   85.0026    7.5206 C.ar    1  UNL1       -0.0003
     34 C          62.7726   86.0915    8.4550 C.ar    1  UNL1       -0.0029
     35 C          59.7914   89.3704    7.8053 C.3     1  UNL1        0.0861
     36 N          60.7755   89.0484    8.8907 N.3     1  UNL1       -0.2924
     37 H          60.5254   89.6236    9.6950 H       1  UNL1        0.1236
     38 C          64.2922   84.4158   13.0471 C.3     1  UNL1        0.1391
     39 C          63.5202   83.1352   13.1660 C.ar    1  UNL1        0.0319
     40 C          63.5992   82.1079   12.0758 C.ar    1  UNL1        0.1379
     41 F          64.1793   82.1728   11.1512 F       1  UNL1       -0.2044
     42 C          62.8272   80.8273   12.1947 C.ar    1  UNL1        0.0294
     43 C          61.9763   80.5740   13.4037 C.ar    1  UNL1        0.0022
     44 C          61.8973   81.6012   14.4939 C.ar    1  UNL1        0.0037
     45 C          62.6693   82.8819   14.3750 C.ar    1  UNL1        0.0714
     46 C          62.5904   83.9091   15.4652 C.3     1  UNL1        0.4184
     47 F          62.5114   84.9364   16.5553 F       1  UNL1       -0.1659
     48 F          63.8965   83.4219   16.0189 F       1  UNL1       -0.1659
     49 F          61.2843   84.3964   14.9115 F       1  UNL1       -0.1659
@<TRIPOS>UNITY_ATOM_ATTR
25 1
charge -1
@<TRIPOS>BOND
     1    35    36    1
     2    36    28    1
     3    28    27    1
     4    27     1    1
     5     1     2   ar
     6     2     3    2
     7     2     4   ar
     8     4    10    1
     9    10    11   ar
    10    11    12   ar
    11    12    13   ar
    12    13    14   ar
    13    14    17    1
    14    17    18    1
    15    18    19    1
    16    19    20    1
    17    20    21    1
    18    21    23    1
    19    23    24    1
    20    24    25   ar
    21    24    26   ar
    22    14    15   ar
    23    15    16    1
    24     4     5   ar
    25     5     6    1
    26     5     7   ar
    27     7    38    1
    28    38    39    1
    29    39    40   ar
    30    40    41    1
    31    40    42   ar
    32    42    43   ar
    33    43    44   ar
    34    44    45   ar
    35    45    46    1
    36    46    47    1
    37    46    48    1
    38    46    49    1
    39     7     8   ar
    40     8     9    2
    41    28    29    1
    42    29    30   ar
    43    30    31   ar
    44    31    32   ar
    45    32    33   ar
    46    33    34   ar
    47     8     1   ar
    48    34    29   ar
    49    15    10   ar
    50    45    39   ar
    51    36    37    1
    52    21    22    1
@<TRIPOS>MOLECULE
*****
 49 52 0 0 0
SMALL
GASTEIGER

@<TRIPOS>ATOM
      1 N          63.5559   86.2994   13.5341 N.ar    1  UNL1       -0.2470
      2 C          63.0672   85.8550   12.1874 C.ar    1  UNL1        0.2654
      3 O          63.0213   84.3940   11.8508 O.2     1  UNL1       -0.2668
      4 C          62.6245   86.8717   11.1773 C.ar    1  UNL1        0.0703
      5 C          62.6704   88.3327   11.5139 C.ar    1  UNL1        0.0465
      6 C          62.3226   88.9705   10.6966 C.3     1  UNL1        0.0503
      7 N          63.1591   88.7771   12.8606 N.ar    1  UNL1       -0.2806
      8 C          63.6019   87.7604   13.8707 C.ar    1  UNL1        0.3338
      9 O          64.0906   88.2048   15.2174 O.2     1  UNL1       -0.2462
     10 C          62.1357   86.4273    9.8305 C.ar    1  UNL1        0.0362
     11 C          63.0340   85.6294    8.9325 C.ar    1  UNL1        0.0026
     12 C          62.5453   85.1850    7.5858 C.ar    1  UNL1        0.0033
     13 C          61.1583   85.5386    7.1370 C.ar    1  UNL1        0.0392
     14 C          60.2601   86.3365    8.0350 C.ar    1  UNL1        0.1658
     15 C          60.7488   86.7809    9.3818 C.ar    1  UNL1        0.1739
     16 F          59.8506   87.5788   10.2798 F       1  UNL1       -0.2010
     17 O          58.8731   86.6901    7.5863 O.3     1  UNL1       -0.4731
     18 C          58.4944   88.1271    7.3822 C.3     1  UNL1        0.2069
     19 C          59.4507   89.0663    6.7087 C.3     1  UNL1        0.0644
     20 C          58.9295   90.2508    5.9502 C.3     1  UNL1        0.0727
     21 N          59.8843   91.1751    5.2546 N.3     1  UNL1       -0.2927
     22 H          60.5316   90.5882    4.7283 H       1  UNL1        0.1236
     23 C          59.3656   92.2105    4.3011 C.3     1  UNL1        0.1110
     24 C          60.2845   92.8225    3.2858 C.2     1  UNL1        0.0663
     25 O          61.6546   92.2501    3.0728 O.co2   1  UNL1       -0.5477
     26 O          59.8335   94.0070    2.4834 O.co2   1  UNL1       -0.5477
     27 C          63.9987   85.2828   14.5443 C.3     1  UNL1        0.1337
     28 C          62.9978   84.3478   15.1558 C.3     1  UNL1        0.1000
     29 C          62.8200   82.9680   14.5949 C.ar    1  UNL1       -0.0061
     30 C          61.4544   82.3495   14.5434 C.ar    1  UNL1       -0.0029
     31 C          61.2767   80.9698   13.9826 C.ar    1  UNL1       -0.0003
     32 C          62.4645   80.2084   13.4733 C.ar    1  UNL1       -0.0000
     33 C          63.8301   80.8269   13.5248 C.ar    1  UNL1       -0.0003
     34 C          64.0078   82.2067   14.0856 C.ar    1  UNL1       -0.0029
     35 C          62.6215   85.9589   17.1590 C.3     1  UNL1        0.0861
     36 N          62.1746   84.7927   16.3281 N.3     1  UNL1       -0.2924
     37 H          61.2496   85.0258   15.9669 H       1  UNL1        0.1236
     38 C          63.2051   90.2381   13.1971 C.3     1  UNL1        0.1391
     39 C          64.5166   90.9659   13.2013 C.ar    1  UNL1        0.0319
     40 C          65.4039   90.9060   14.4094 C.ar    1  UNL1        0.1379
     41 F          65.2096   90.3703   15.3426 F       1  UNL1       -0.2044
     42 C          66.7154   91.6338   14.4135 C.ar    1  UNL1        0.0294
     43 C          67.1399   92.4215   13.2096 C.ar    1  UNL1        0.0022
     44 C          66.2527   92.4815   12.0016 C.ar    1  UNL1        0.0037
     45 C          64.9411   91.7537   11.9974 C.ar    1  UNL1        0.0714
     46 C          64.0540   91.8136   10.7894 C.3     1  UNL1        0.4184
     47 F          63.1668   91.8735    9.5814 F       1  UNL1       -0.1659
     48 F          62.8463   91.8533   11.6782 F       1  UNL1       -0.1659
     49 F          65.2616   91.7739    9.9006 F       1  UNL1       -0.1659
@<TRIPOS>UNITY_ATOM_ATTR
25 1
charge -1
@<TRIPOS>BOND
     1    35    36    1
     2    36    28    1
     3    28    27    1
     4    27     1    1
     5     1     2   ar
     6     2     3    2
     7     2     4   ar
     8     4    10    1
     9    10    11   ar
    10    11    12   ar
    11    12    13   ar
    12    13    14   ar
    13    14    17    1
    14    17    18    1
    15    18    19    1
    16    19    20    1
    17    20    21    1
    18    21    23    1
    19    23    24    1
    20    24    25   ar
    21    24    26   ar
    22    14    15   ar
    23    15    16    1
    24     4     5   ar
    25     5     6    1
    26     5     7   ar
    27     7    38    1
    28    38    39    1
    29    39    40   ar
    30    40    41    1
    31    40    42   ar
    32    42    43   ar
    33    43    44   ar
    34    44    45   ar
    35    45    46    1
    36    46    47    1
    37    46    48    1
    38    46    49    1
    39     7     8   ar
    40     8     9    2
    41    28    29    1
    42    29    30   ar
    43    30    31   ar
    44    31    32   ar
    45    32    33   ar
    46    33    34   ar
    47     8     1   ar
    48    34    29   ar
    49    15    10   ar
    50    45    39   ar
    51    36    37    1
    52    21    22    1
@<TRIPOS>MOLECULE
*****
 49 52 0 0 0
SMALL
GASTEIGER

@<TRIPOS>ATOM
      1 N          63.4461   90.2748   11.3949 N.ar    1  UNL1       -0.2470
      2 C          63.2290   89.2994   12.5135 C.ar    1  UNL1        0.2654
      3 O          62.3896   88.0765   12.2900 O.2     1  UNL1       -0.2668
      4 C          63.8513   89.5469   13.8557 C.ar    1  UNL1        0.0703
      5 C          64.6907   90.7698   14.0792 C.ar    1  UNL1        0.0465
      6 C          65.0867   90.8360   15.0963 C.3     1  UNL1        0.0503
      7 N          64.9078   91.7452   12.9606 N.ar    1  UNL1       -0.2806
      8 C          64.2855   91.4977   11.6184 C.ar    1  UNL1        0.3338
      9 O          64.5026   92.4731   10.4996 O.2     1  UNL1       -0.2462
     10 C          63.6342   88.5715   14.9744 C.ar    1  UNL1        0.0362
     11 C          63.0378   89.0366   16.2698 C.ar    1  UNL1        0.0026
     12 C          62.8207   88.0612   17.3885 C.ar    1  UNL1        0.0033
     13 C          63.2000   86.6207   17.2119 C.ar    1  UNL1        0.0392
     14 C          63.7964   86.1556   15.9165 C.ar    1  UNL1        0.1658
     15 C          64.0135   87.1310   14.7978 C.ar    1  UNL1        0.1739
     16 F          64.6099   86.6660   13.5024 F       1  UNL1       -0.2010
     17 O          64.1757   84.7152   15.7398 O.3     1  UNL1       -0.4731
     18 C          63.1137   83.6847   15.4947 C.3     1  UNL1        0.2069
     19 C          62.1602   83.8482   14.3483 C.3     1  UNL1        0.0644
     20 C          62.6864   84.0462   12.9576 C.3     1  UNL1        0.0727
     21 N          64.1157   83.7179   12.6427 N.3     1  UNL1       -0.2927
     22 H          64.6778   84.0819   13.4121 H       1  UNL1        0.1236
     23 C          64.5305   82.2905   12.4410 C.3     1  UNL1        0.1110
     24 C          63.6110   81.1776   12.8482 C.2     1  UNL1        0.0663
     25 O          62.5805   80.6659   11.8858 O.co2   1  UNL1       -0.5477
     26 O          63.7219   80.5763   14.2180 O.co2   1  UNL1       -0.5477
     27 C          62.8238   90.0273   10.0526 C.3     1  UNL1        0.1337
     28 C          61.3594   89.7191    9.9502 C.3     1  UNL1        0.1000
     29 C          60.8994   88.5037    9.2010 C.ar    1  UNL1       -0.0061
     30 C          61.6963   87.2347    9.2686 C.ar    1  UNL1       -0.0029
     31 C          61.2362   86.0194    8.5194 C.ar    1  UNL1       -0.0003
     32 C          59.9792   86.0731    7.7026 C.ar    1  UNL1       -0.0000
     33 C          59.1823   87.3421    7.6350 C.ar    1  UNL1       -0.0003
     34 C          59.6424   88.5574    8.3842 C.ar    1  UNL1       -0.0029
     35 C          59.5408   90.1370   11.7580 C.3     1  UNL1        0.0861
     36 N          60.3550   90.6262   10.5970 N.3     1  UNL1       -0.2924
     37 H          60.8656   91.4477   10.9207 H       1  UNL1        0.1236
     38 C          65.7471   92.9681   13.1841 C.3     1  UNL1        0.1391
     39 C          67.0577   92.8567   13.9051 C.ar    1  UNL1        0.0319
     40 C          67.1482   93.2212   15.3573 C.ar    1  UNL1        0.1379
     41 F          66.3372   93.5786   15.9979 F       1  UNL1       -0.2044
     42 C          68.4588   93.1098   16.0783 C.ar    1  UNL1        0.0294
     43 C          69.6790   92.6338   15.3472 C.ar    1  UNL1        0.0022
     44 C          69.5886   92.2693   13.8950 C.ar    1  UNL1        0.0037
     45 C          68.2779   92.3807   13.1739 C.ar    1  UNL1        0.0714
     46 C          68.1875   92.0161   11.7217 C.3     1  UNL1        0.4184
     47 F          68.0971   91.6516   10.2695 F       1  UNL1       -0.1659
     48 F          67.3920   93.2603   11.4589 F       1  UNL1       -0.1659
     49 F          68.9830   90.7719   11.9845 F       1  UNL1       -0.1659
@<TRIPOS>UNITY_ATOM_ATTR
25 1
charge -1
@<TRIPOS>BOND
     1    35    36    1
     2    36    28    1
     3    28    27    1
     4    27     1    1
     5     1     2   ar
     6     2     3    2
     7     2     4   ar
     8     4    10    1
     9    10    11   ar
    10    11    12   ar
    11    12    13   ar
    12    13    14   ar
    13    14    17    1
    14    17    18    1
    15    18    19    1
    16    19    20    1
    17    20    21    1
    18    21    23    1
    19    23    24    1
    20    24    25   ar
    21    24    26   ar
    22    14    15   ar
    23    15    16    1
    24     4     5   ar
    25     5     6    1
    26     5     7   ar
    27     7    38    1
    28    38    39    1
    29    39    40   ar
    30    40    41    1
    31    40    42   ar
    32    42    43   ar
    33    43    44   ar
    34    44    45   ar
    35    45    46    1
    36    46    47    1
    37    46    48    1
    38    46    49    1
    39     7     8   ar
    40     8     9    2
    41    28    29    1
    42    29    30   ar
    43    30    31   ar
    44    31    32   ar
    45    32    33   ar
    46    33    34   ar
    47     8     1   ar
    48    34    29   ar
    49    15    10   ar
    50    45    39   ar
    51    36    37    1
    52    21    22    1
@<TRIPOS>MOLECULE
*****
 49 52 0 0 0
SMALL
GASTEIGER

@<TRIPOS>ATOM
      1 N          64.9940   91.5572   12.9409 N.ar    1  UNL1       -0.2470
      2 C          64.8072   90.5629   14.0483 C.ar    1  UNL1        0.2654
      3 O          65.5640   90.7210   15.3337 O.2     1  UNL1       -0.2668
      4 C          63.8636   89.4106   13.8704 C.ar    1  UNL1        0.0703
      5 C          63.1068   89.2525   12.5849 C.ar    1  UNL1        0.0465
      6 C          62.4533   88.3758   12.5790 C.3     1  UNL1        0.0503
      7 N          63.2936   90.2468   11.4775 N.ar    1  UNL1       -0.2806
      8 C          64.2372   91.3991   11.6555 C.ar    1  UNL1        0.3338
      9 O          64.4240   92.3935   10.5480 O.2     1  UNL1       -0.2462
     10 C          63.6768   88.4162   14.9778 C.ar    1  UNL1        0.0362
     11 C          63.0944   88.8544   16.2889 C.ar    1  UNL1        0.0026
     12 C          62.9076   87.8602   17.3963 C.ar    1  UNL1        0.0033
     13 C          63.3031   86.4276   17.1928 C.ar    1  UNL1        0.0392
     14 C          63.8855   85.9894   15.8817 C.ar    1  UNL1        0.1658
     15 C          64.0723   86.9837   14.7743 C.ar    1  UNL1        0.1739
     16 F          64.6547   86.5455   13.4632 F       1  UNL1       -0.2010
     17 O          64.2810   84.5569   15.6782 O.3     1  UNL1       -0.4731
     18 C          63.6372   83.7483   14.5912 C.3     1  UNL1        0.2069
     19 C          62.3724   82.9910   14.8686 C.3     1  UNL1        0.0644
     20 C          62.1171   81.6810   14.1840 C.3     1  UNL1        0.0727
     21 N          63.1099   81.1455   13.1953 N.3     1  UNL1       -0.2927
     22 H          63.0924   80.1293   13.2814 H       1  UNL1        0.1236
     23 C          62.9591   81.4591   11.7362 C.3     1  UNL1        0.1110
     24 C          63.5318   82.7285   11.1788 C.2     1  UNL1        0.0663
     25 O          64.9134   82.7349   10.5947 O.co2   1  UNL1       -0.5477
     26 O          62.7229   83.9915   11.2054 O.co2   1  UNL1       -0.5477
     27 C          65.9376   92.7096   13.1188 C.3     1  UNL1        0.1337
     28 C          67.3290   92.6322   12.5639 C.3     1  UNL1        0.1000
     29 C          67.5895   93.0130   11.1366 C.ar    1  UNL1       -0.0061
     30 C          67.1104   94.3346   10.6135 C.ar    1  UNL1       -0.0029
     31 C          67.3709   94.7153    9.1862 C.ar    1  UNL1       -0.0003
     32 C          68.1105   93.7744    8.2820 C.ar    1  UNL1       -0.0000
     33 C          68.5896   92.4527    8.8051 C.ar    1  UNL1       -0.0003
     34 C          68.3291   92.0720   10.2324 C.ar    1  UNL1       -0.0029
     35 C          68.4688   92.5198   14.8959 C.3     1  UNL1        0.0861
     36 N          68.4599   92.1741   13.4363 N.3     1  UNL1       -0.2924
     37 H          68.4858   91.1563   13.3746 H       1  UNL1        0.1236
     38 C          62.5368   90.0887   10.1921 C.3     1  UNL1        0.1391
     39 C          61.7210   88.8536    9.9491 C.ar    1  UNL1        0.0319
     40 C          62.3576   87.6436    9.3320 C.ar    1  UNL1        0.1379
     41 F          63.3993   87.5363    9.0173 F       1  UNL1       -0.2044
     42 C          61.5418   86.4086    9.0890 C.ar    1  UNL1        0.0294
     43 C          60.0894   86.3835    9.4630 C.ar    1  UNL1        0.0022
     44 C          59.4528   87.5934   10.0800 C.ar    1  UNL1        0.0037
     45 C          60.2686   88.8285   10.3231 C.ar    1  UNL1        0.0714
     46 C          59.6320   90.0385   10.9401 C.3     1  UNL1        0.4184
     47 F          58.9954   91.2484   11.5571 F       1  UNL1       -0.1659
     48 F          59.7736   90.7753    9.6412 F       1  UNL1       -0.1659
     49 F          59.4904   89.3016   12.2389 F       1  UNL1       -0.1659
@<TRIPOS>UNITY_ATOM_ATTR
25 1
charge -1
@<TRIPOS>BOND
     1    35    36    1
     2    36    28    1
     3    28    27    1
     4    27     1    1
     5     1     2   ar
     6     2     3    2
     7     2     4   ar
     8     4    10    1
     9    10    11   ar
    10    11    12   ar
    11    12    13   ar
    12    13    14   ar
    13    14    17    1
    14    17    18    1
    15    18    19    1
    16    19    20    1
    17    20    21    1
    18    21    23    1
    19    23    24    1
    20    24    25   ar
    21    24    26   ar
    22    14    15   ar
    23    15    16    1
    24     4     5   ar
    25     5     6    1
    26     5     7   ar
    27     7    38    1
    28    38    39    1
    29    39    40   ar
    30    40    41    1
    31    40    42   ar
    32    42    43   ar
    33    43    44   ar
    34    44    45   ar
    35    45    46    1
    36    46    47    1
    37    46    48    1
    38    46    49    1
    39     7     8   ar
    40     8     9    2
    41    28    29    1
    42    29    30   ar
    43    30    31   ar
    44    31    32   ar
    45    32    33   ar
    46    33    34   ar
    47     8     1   ar
    48    34    29   ar
    49    15    10   ar
    50    45    39   ar
    51    36    37    1
    52    21    22    1
@<TRIPOS>MOLECULE
*****
 49 52 0 0 0
SMALL
GASTEIGER

@<TRIPOS>ATOM
      1 N          61.6825   87.3142   11.8930 N.ar    1  UNL1       -0.2470
      2 C          62.1348   88.4934   12.7021 C.ar    1  UNL1        0.2654
      3 O          61.4630   89.8234   12.5297 O.2     1  UNL1       -0.2668
      4 C          63.2590   88.3426   13.6837 C.ar    1  UNL1        0.0703
      5 C          63.9308   87.0126   13.8561 C.ar    1  UNL1        0.0465
      6 C          64.7330   87.0323   14.5990 C.3     1  UNL1        0.0503
      7 N          63.4785   85.8334   13.0469 N.ar    1  UNL1       -0.2806
      8 C          62.3543   85.9842   12.0654 C.ar    1  UNL1        0.3338
      9 O          61.9019   84.8049   11.2562 O.2     1  UNL1       -0.2462
     10 C          63.7114   89.5219   14.4929 C.ar    1  UNL1        0.0362
     11 C          63.3582   89.6129   15.9479 C.ar    1  UNL1        0.0026
     12 C          63.8106   90.7921   16.7571 C.ar    1  UNL1        0.0033
     13 C          64.6161   91.8803   16.1113 C.ar    1  UNL1        0.0392
     14 C          64.9693   91.7893   14.6563 C.ar    1  UNL1        0.1658
     15 C          64.5169   90.6100   13.8471 C.ar    1  UNL1        0.1739
     16 F          64.8701   90.5190   12.3921 F       1  UNL1       -0.2010
     17 O          65.7748   92.8774   14.0105 O.3     1  UNL1       -0.4731
     18 C          66.0820   92.8133   12.5438 C.3     1  UNL1        0.2069
     19 C          65.5351   93.8579   11.6165 C.3     1  UNL1        0.0644
     20 C          66.3872   95.0256   11.2160 C.3     1  UNL1        0.0727
     21 N          67.5654   94.8188   10.3111 N.3     1  UNL1       -0.2927
     22 H          68.3575   94.5818   10.9084 H       1  UNL1        0.1236
     23 C          67.5093   93.7773    9.2329 C.3     1  UNL1        0.1110
     24 C          68.3899   92.5657    9.3140 C.2     1  UNL1        0.0663
     25 O          68.9274   91.9439    8.0592 O.co2   1  UNL1       -0.5477
     26 O          68.7330   91.9759   10.6498 O.co2   1  UNL1       -0.5477
     27 C          60.5583   87.4649   10.9114 C.3     1  UNL1        0.1337
     28 C          60.8547   87.7641    9.4717 C.3     1  UNL1        0.1000
     29 C          61.2420   86.6547    8.5394 C.ar    1  UNL1       -0.0061
     30 C          62.6411   86.1144    8.5569 C.ar    1  UNL1       -0.0029
     31 C          63.0284   85.0049    7.6246 C.ar    1  UNL1       -0.0003
     32 C          62.0164   84.4359    6.6748 C.ar    1  UNL1       -0.0000
     33 C          60.6172   84.9762    6.6573 C.ar    1  UNL1       -0.0003
     34 C          60.2300   86.0856    7.5896 C.ar    1  UNL1       -0.0029
     35 C          60.0580   90.2183    9.7761 C.3     1  UNL1        0.0861
     36 N          60.7639   89.1728    8.9644 N.3     1  UNL1       -0.2924
     37 H          61.7207   89.5000    8.8309 H       1  UNL1        0.1236
     38 C          64.1503   84.5034   13.2193 C.3     1  UNL1        0.1391
     39 C          63.3250   83.2582   13.3552 C.ar    1  UNL1        0.0319
     40 C          62.4347   83.0750   14.5485 C.ar    1  UNL1        0.1379
     41 F          62.2997   83.7700   15.3817 F       1  UNL1       -0.2044
     42 C          61.6094   81.8298   14.6843 C.ar    1  UNL1        0.0294
     43 C          61.6744   80.7679   13.6269 C.ar    1  UNL1        0.0022
     44 C          62.5646   80.9512   12.4336 C.ar    1  UNL1        0.0037
     45 C          63.3899   82.1963   12.2977 C.ar    1  UNL1        0.0714
     46 C          64.2802   82.3796   11.1045 C.3     1  UNL1        0.4184
     47 F          65.1704   82.5628    9.9112 F       1  UNL1       -0.1659
     48 F          65.4862   82.1775   11.9732 F       1  UNL1       -0.1659
     49 F          63.0742   82.5816   10.2358 F       1  UNL1       -0.1659
@<TRIPOS>UNITY_ATOM_ATTR
25 1
charge -1
@<TRIPOS>BOND
     1    35    36    1
     2    36    28    1
     3    28    27    1
     4    27     1    1
     5     1     2   ar
     6     2     3    2
     7     2     4   ar
     8     4    10    1
     9    10    11   ar
    10    11    12   ar
    11    12    13   ar
    12    13    14   ar
    13    14    17    1
    14    17    18    1
    15    18    19    1
    16    19    20    1
    17    20    21    1
    18    21    23    1
    19    23    24    1
    20    24    25   ar
    21    24    26   ar
    22    14    15   ar
    23    15    16    1
    24     4     5   ar
    25     5     6    1
    26     5     7   ar
    27     7    38    1
    28    38    39    1
    29    39    40   ar
    30    40    41    1
    31    40    42   ar
    32    42    43   ar
    33    43    44   ar
    34    44    45   ar
    35    45    46    1
    36    46    47    1
    37    46    48    1
    38    46    49    1
    39     7     8   ar
    40     8     9    2
    41    28    29    1
    42    29    30   ar
    43    30    31   ar
    44    31    32   ar
    45    32    33   ar
    46    33    34   ar
    47     8     1   ar
    48    34    29   ar
    49    15    10   ar
    50    45    39   ar
    51    36    37    1
    52    21    22    1
@<TRIPOS>MOLECULE
*****
 49 52 0 0 0
SMALL
GASTEIGER

@<TRIPOS>ATOM
      1 N          60.7658   89.0569   10.1346 N.ar    1  UNL1       -0.2470
      2 C          61.7630   90.0179   10.7106 C.ar    1  UNL1        0.2654
      3 O          61.7602   91.4530   10.2742 O.2     1  UNL1       -0.2668
      4 C          62.7630   89.5439   11.7231 C.ar    1  UNL1        0.0703
      5 C          62.7658   88.1088   12.1596 C.ar    1  UNL1        0.0465
      6 C          63.5404   87.8888   12.8994 C.3     1  UNL1        0.0503
      7 N          61.7686   87.1477   11.5835 N.ar    1  UNL1       -0.2806
      8 C          60.7686   87.6218   10.5710 C.ar    1  UNL1        0.3338
      9 O          59.7713   86.6607    9.9949 O.2     1  UNL1       -0.2462
     10 C          63.7603   90.5050   12.2993 C.ar    1  UNL1        0.0362
     11 C          64.1711   90.3873   13.7371 C.ar    1  UNL1        0.0026
     12 C          65.1683   91.3483   14.3133 C.ar    1  UNL1        0.0033
     13 C          65.7548   92.4270   13.4515 C.ar    1  UNL1        0.0392
     14 C          65.3440   92.5447   12.0137 C.ar    1  UNL1        0.1658
     15 C          64.3467   91.5836   11.4376 C.ar    1  UNL1        0.1739
     16 F          63.9359   91.7012    9.9997 F       1  UNL1       -0.2010
     17 O          65.9304   93.6233   11.1520 O.3     1  UNL1       -0.4731
     18 C          66.1392   94.9994   11.7111 C.3     1  UNL1        0.2069
     19 C          66.4570   96.1420   10.7926 C.3     1  UNL1        0.0644
     20 C          66.3579   95.9599    9.3070 C.3     1  UNL1        0.0727
     21 N          66.8291   94.6840    8.6747 N.3     1  UNL1       -0.2927
     22 H          66.6278   94.7577    7.6775 H       1  UNL1        0.1236
     23 C          68.2664   94.2724    8.7971 C.3     1  UNL1        0.1110
     24 C          68.6142   92.8495    9.1202 C.2     1  UNL1        0.0663
     25 O          68.7104   92.4071   10.5502 O.co2   1  UNL1       -0.5477
     26 O          68.8658   91.8690    8.0132 O.co2   1  UNL1       -0.5477
     27 C          59.7657   89.5309    9.1220 C.3     1  UNL1        0.1337
     28 C          59.8431   89.0424    7.7059 C.3     1  UNL1        0.1000
     29 C          59.4970   89.9645    6.5745 C.ar    1  UNL1       -0.0061
     30 C          60.5874   90.5876    5.7543 C.ar    1  UNL1       -0.0029
     31 C          60.2413   91.5096    4.6230 C.ar    1  UNL1       -0.0003
     32 C          58.8047   91.8086    4.3118 C.ar    1  UNL1       -0.0000
     33 C          57.7143   91.1855    5.1319 C.ar    1  UNL1       -0.0003
     34 C          58.0604   90.2635    6.2632 C.ar    1  UNL1       -0.0029
     35 C          59.2370   86.5456    7.3203 C.3     1  UNL1        0.0861
     36 N          60.2665   87.6319    7.4211 N.3     1  UNL1       -0.2924
     37 H          60.7655   87.6481    6.5316 H       1  UNL1        0.1236
     38 C          61.7714   85.7126   12.0200 C.3     1  UNL1        0.1391
     39 C          62.7365   84.7434   11.4044 C.ar    1  UNL1        0.0319
     40 C          62.9450   84.7336    9.9189 C.ar    1  UNL1        0.1379
     41 F          62.4576   85.3776    9.1818 F       1  UNL1       -0.2044
     42 C          63.9101   83.7644    9.3034 C.ar    1  UNL1        0.0294
     43 C          64.6669   82.8048   10.1732 C.ar    1  UNL1        0.0022
     44 C          64.4585   82.8146   11.6586 C.ar    1  UNL1        0.0037
     45 C          63.4933   83.7838   12.2742 C.ar    1  UNL1        0.0714
     46 C          63.2850   83.7936   13.7596 C.3     1  UNL1        0.4184
     47 F          63.0766   83.8033   15.2450 F       1  UNL1       -0.1659
     48 F          62.1872   82.7821   13.6123 F       1  UNL1       -0.1659
     49 F          64.3827   84.8051   13.9070 F       1  UNL1       -0.1659
@<TRIPOS>UNITY_ATOM_ATTR
25 1
charge -1
@<TRIPOS>BOND
     1    35    36    1
     2    36    28    1
     3    28    27    1
     4    27     1    1
     5     1     2   ar
     6     2     3    2
     7     2     4   ar
     8     4    10    1
     9    10    11   ar
    10    11    12   ar
    11    12    13   ar
    12    13    14   ar
    13    14    17    1
    14    17    18    1
    15    18    19    1
    16    19    20    1
    17    20    21    1
    18    21    23    1
    19    23    24    1
    20    24    25   ar
    21    24    26   ar
    22    14    15   ar
    23    15    16    1
    24     4     5   ar
    25     5     6    1
    26     5     7   ar
    27     7    38    1
    28    38    39    1
    29    39    40   ar
    30    40    41    1
    31    40    42   ar
    32    42    43   ar
    33    43    44   ar
    34    44    45   ar
    35    45    46    1
    36    46    47    1
    37    46    48    1
    38    46    49    1
    39     7     8   ar
    40     8     9    2
    41    28    29    1
    42    29    30   ar
    43    30    31   ar
    44    31    32   ar
    45    32    33   ar
    46    33    34   ar
    47     8     1   ar
    48    34    29   ar
    49    15    10   ar
    50    45    39   ar
    51    36    37    1
    52    21    22    1
@<TRIPOS>MOLECULE
*****
 49 52 0 0 0
SMALL
GASTEIGER

@<TRIPOS>ATOM
      1 N          63.1776   86.6687   13.1765 N.ar    1  UNL1       -0.2470
      2 C          62.3738   86.4353   11.9318 C.ar    1  UNL1        0.2654
      3 O          61.7253   85.1033   11.6965 O.2     1  UNL1       -0.2668
      4 C          62.2185   87.5338   10.9223 C.ar    1  UNL1        0.0703
      5 C          62.8670   88.8657   11.1576 C.ar    1  UNL1        0.0465
      6 C          62.6801   89.5803   10.3512 C.3     1  UNL1        0.0503
      7 N          63.6708   89.0992   12.4023 N.ar    1  UNL1       -0.2806
      8 C          63.8261   88.0006   13.4117 C.ar    1  UNL1        0.3338
      9 O          64.6299   88.2340   14.6566 O.2     1  UNL1       -0.2462
     10 C          61.4147   87.3004    9.6775 C.ar    1  UNL1        0.0362
     11 C          61.4812   85.9745    8.9794 C.ar    1  UNL1        0.0026
     12 C          60.6774   85.7410    7.7346 C.ar    1  UNL1        0.0033
     13 C          59.8070   86.8336    7.1880 C.ar    1  UNL1        0.0392
     14 C          59.7405   88.1596    7.8861 C.ar    1  UNL1        0.1658
     15 C          60.5443   88.3929    9.1309 C.ar    1  UNL1        0.1739
     16 F          60.4777   89.7189    9.8291 F       1  UNL1       -0.2010
     17 O          58.8701   89.2521    7.3395 O.3     1  UNL1       -0.4731
     18 C          59.2203   89.9093    6.0375 C.3     1  UNL1        0.2069
     19 C          58.2701   90.8865    5.4111 C.3     1  UNL1        0.0644
     20 C          58.7850   92.1788    4.8501 C.3     1  UNL1        0.0727
     21 N          59.0199   92.3153    3.3750 N.3     1  UNL1       -0.2927
     22 H          58.1810   92.7415    2.9814 H       1  UNL1        0.1236
     23 C          60.1871   93.1120    2.8719 C.3     1  UNL1        0.1110
     24 C          61.5101   92.4426    2.6450 C.2     1  UNL1        0.0663
     25 O          62.1723   91.6921    3.7622 O.co2   1  UNL1       -0.5477
     26 O          62.1710   92.5237    1.3008 O.co2   1  UNL1       -0.5477
     27 C          63.3329   85.5701   14.1860 C.3     1  UNL1        0.1337
     28 C          64.1325   84.3472   13.8467 C.3     1  UNL1        0.1000
     29 C          63.4360   83.0452   13.5823 C.ar    1  UNL1       -0.0061
     30 C          63.7534   82.2632   12.3423 C.ar    1  UNL1       -0.0029
     31 C          63.0569   80.9613   12.0779 C.ar    1  UNL1       -0.0003
     32 C          62.0431   80.4414   13.0536 C.ar    1  UNL1       -0.0000
     33 C          61.7257   81.2235   14.2936 C.ar    1  UNL1       -0.0003
     34 C          62.4222   82.5254   14.5579 C.ar    1  UNL1       -0.0029
     35 C          66.3859   85.2621   14.7606 C.3     1  UNL1        0.0861
     36 N          65.6285   84.4262   13.7717 N.3     1  UNL1       -0.2924
     37 H          65.9787   83.4726   13.8630 H       1  UNL1        0.1236
     38 C          64.3193   90.4311   12.6375 C.3     1  UNL1        0.1391
     39 C          64.4464   90.9674   14.0326 C.ar    1  UNL1        0.0319
     40 C          63.3863   90.6681   15.0507 C.ar    1  UNL1        0.1379
     41 F          62.4794   90.0755   14.9018 F       1  UNL1       -0.2044
     42 C          63.5134   91.2044   16.4458 C.ar    1  UNL1        0.0294
     43 C          64.7006   92.0401   16.8227 C.ar    1  UNL1        0.0022
     44 C          65.7607   92.3395   15.8046 C.ar    1  UNL1        0.0037
     45 C          65.6336   91.8032   14.4095 C.ar    1  UNL1        0.0714
     46 C          66.6937   92.1026   13.3914 C.3     1  UNL1        0.4184
     47 F          67.7538   92.4019   12.3734 F       1  UNL1       -0.1659
     48 F          67.5416   90.9982   13.9496 F       1  UNL1       -0.1659
     49 F          65.8459   93.2069   12.8333 F       1  UNL1       -0.1659
@<TRIPOS>UNITY_ATOM_ATTR
25 1
charge -1
@<TRIPOS>BOND
     1    35    36    1
     2    36    28    1
     3    28    27    1
     4    27     1    1
     5     1     2   ar
     6     2     3    2
     7     2     4   ar
     8     4    10    1
     9    10    11   ar
    10    11    12   ar
    11    12    13   ar
    12    13    14   ar
    13    14    17    1
    14    17    18    1
    15    18    19    1
    16    19    20    1
    17    20    21    1
    18    21    23    1
    19    23    24    1
    20    24    25   ar
    21    24    26   ar
    22    14    15   ar
    23    15    16    1
    24     4     5   ar
    25     5     6    1
    26     5     7   ar
    27     7    38    1
    28    38    39    1
    29    39    40   ar
    30    40    41    1
    31    40    42   ar
    32    42    43   ar
    33    43    44   ar
    34    44    45   ar
    35    45    46    1
    36    46    47    1
    37    46    48    1
    38    46    49    1
    39     7     8   ar
    40     8     9    2
    41    28    29    1
    42    29    30   ar
    43    30    31   ar
    44    31    32   ar
    45    32    33   ar
    46    33    34   ar
    47     8     1   ar
    48    34    29   ar
    49    15    10   ar
    50    45    39   ar
    51    36    37    1
    52    21    22    1
