@<TRIPOS>MOLECULE
*****
 28 31 0 0 0
SMALL
GASTEIGER

@<TRIPOS>ATOM
      1 C          66.3596   93.3783   12.7496 C.3     1  UNL1        0.0520
      2 C          65.3992   92.2426   12.5549 C.ar    1  UNL1        0.0612
      3 N          64.6875   92.0785   11.2446 N.ar    1  UNL1       -0.2157
      4 C          63.7272   90.9428   11.0499 C.ar    1  UNL1        0.2366
      5 N          62.8860   90.5293    9.8788 N.ar    1  UNL1       -0.2096
      6 C          62.1173   89.3022   10.2706 C.ar    1  UNL1        0.1019
      7 C          62.4835   88.9573   11.6837 C.ar    1  UNL1        0.1019
      8 N          63.4785   89.9713   12.1654 N.ar    1  UNL1       -0.2739
      9 C          64.1901   90.1354   13.4756 C.ar    1  UNL1        0.0660
     10 C          65.1505   91.2711   13.6703 C.ar    1  UNL1        0.0233
     11 C          63.9414   89.1639   14.5911 C.ar    1  UNL1        0.0266
     12 C          64.3261   87.7230   14.4304 C.ar    1  UNL1        0.0031
     13 C          64.0773   86.7515   15.5460 C.ar    1  UNL1        0.0115
     14 C          63.4439   87.2209   16.8221 C.ar    1  UNL1        0.0585
     15 CL         63.1952   86.2495   17.9375 Cl      1  UNL1       -0.0822
     16 C          63.0593   88.6619   16.9827 C.ar    1  UNL1        0.0228
     17 C          63.3080   89.6333   15.8672 C.ar    1  UNL1        0.0599
     18 CL         62.9234   91.0743   16.0277 Cl      1  UNL1       -0.0822
     19 C          61.1520   88.5517    9.4017 C.ar    1  UNL1        0.0192
     20 C          61.1592   87.0518    9.3945 C.ar    1  UNL1        0.0015
     21 C          60.1938   86.3014    8.5256 C.ar    1  UNL1        0.0000
     22 C          59.2213   87.0509    7.6640 C.ar    1  UNL1        0.0000
     23 C          59.2141   88.5508    7.6712 C.ar    1  UNL1        0.0000
     24 C          60.1795   89.3012    8.5401 C.ar    1  UNL1        0.0015
     25 C          65.8621   91.4352   14.9805 C.3     1  UNL1        0.0948
     26 N          65.7108   92.7066   15.7620 N.3     1  UNL1       -0.3174
     27 H          66.1304   93.4773   15.2421 H       1  UNL1        0.1192
     28 H          66.1789   92.6096   16.6631 H       1  UNL1        0.1192
@<TRIPOS>BOND
     1     1     2    1
     2     2     3   ar
     3     3     4   ar
     4     4     5   ar
     5     5     6   ar
     6     6    19    1
     7    19    20   ar
     8    20    21   ar
     9    21    22   ar
    10    22    23   ar
    11    23    24   ar
    12     6     7   ar
    13     7     8   ar
    14     8     9   ar
    15     9    11    1
    16    11    12   ar
    17    12    13   ar
    18    13    14   ar
    19    14    15    1
    20    14    16   ar
    21    16    17   ar
    22    17    18    1
    23     9    10   ar
    24    10    25    1
    25    25    26    1
    26    10     2   ar
    27     8     4   ar
    28    17    11   ar
    29    24    19   ar
    30    26    27    1
    31    26    28    1
@<TRIPOS>MOLECULE
*****
 28 31 0 0 0
SMALL
GASTEIGER

@<TRIPOS>ATOM
      1 C          58.9815   88.5348    7.4314 C.3     1  UNL1        0.0520
      2 C          60.0397   88.5098    8.4944 C.ar    1  UNL1        0.0612
      3 N          60.5258   89.7936    9.0991 N.ar    1  UNL1       -0.2157
      4 C          61.5838   89.7686   10.1620 C.ar    1  UNL1        0.2366
      5 N          62.2550   90.8642   10.9361 N.ar    1  UNL1       -0.2096
      6 C          63.2417   90.2325   11.8728 C.ar    1  UNL1        0.1019
      7 C          63.1804   88.7465   11.6776 C.ar    1  UNL1        0.1019
      8 N          62.1558   88.4598   10.6203 N.ar    1  UNL1       -0.2739
      9 C          61.6697   87.1760   10.0155 C.ar    1  UNL1        0.0660
     10 C          60.6116   87.2011    8.9526 C.ar    1  UNL1        0.0233
     11 C          62.2416   85.8673   10.4737 C.ar    1  UNL1        0.0266
     12 C          61.9441   85.3609   11.8540 C.ar    1  UNL1        0.0031
     13 C          62.5161   84.0520   12.3121 C.ar    1  UNL1        0.0115
     14 C          63.3856   83.2496   11.3901 C.ar    1  UNL1        0.0585
     15 CL         63.9575   81.9409   11.8483 Cl      1  UNL1       -0.0822
     16 C          63.6831   83.7561   10.0098 C.ar    1  UNL1        0.0228
     17 C          63.1112   85.0648    9.5517 C.ar    1  UNL1        0.0599
     18 CL         63.4086   85.5713    8.1715 Cl      1  UNL1       -0.0822
     19 C          64.1333   90.9592   12.8356 C.ar    1  UNL1        0.0192
     20 C          64.0962   90.6181   14.2958 C.ar    1  UNL1        0.0015
     21 C          64.9878   91.3449   15.2586 C.ar    1  UNL1        0.0000
     22 C          65.9164   92.4127   14.7612 C.ar    1  UNL1        0.0000
     23 C          65.9535   92.7538   13.3010 C.ar    1  UNL1        0.0000
     24 C          65.0619   92.0270   12.3382 C.ar    1  UNL1        0.0015
     25 C          60.1255   85.9173    8.3479 C.3     1  UNL1        0.0948
     26 N          60.4859   85.5707    6.9337 N.3     1  UNL1       -0.3174
     27 H          60.0461   86.2362    6.2979 H       1  UNL1        0.1192
     28 H          60.1577   84.6288    6.7202 H       1  UNL1        0.1192
@<TRIPOS>BOND
     1     1     2    1
     2     2     3   ar
     3     3     4   ar
     4     4     5   ar
     5     5     6   ar
     6     6    19    1
     7    19    20   ar
     8    20    21   ar
     9    21    22   ar
    10    22    23   ar
    11    23    24   ar
    12     6     7   ar
    13     7     8   ar
    14     8     9   ar
    15     9    11    1
    16    11    12   ar
    17    12    13   ar
    18    13    14   ar
    19    14    15    1
    20    14    16   ar
    21    16    17   ar
    22    17    18    1
    23     9    10   ar
    24    10    25    1
    25    25    26    1
    26    10     2   ar
    27     8     4   ar
    28    17    11   ar
    29    24    19   ar
    30    26    27    1
    31    26    28    1
@<TRIPOS>MOLECULE
*****
 28 31 0 0 0
SMALL
GASTEIGER

@<TRIPOS>ATOM
      1 C          65.7964   92.3147   16.6117 C.3     1  UNL1        0.0520
      2 C          65.3385   92.0341   15.2110 C.ar    1  UNL1        0.0612
      3 N          64.2980   90.9835   14.9584 N.ar    1  UNL1       -0.2157
      4 C          63.8402   90.7030   13.5578 C.ar    1  UNL1        0.2366
      5 N          62.8375   89.7341   13.0047 N.ar    1  UNL1       -0.2096
      6 C          62.8003   89.9054   11.5150 C.ar    1  UNL1        0.1019
      7 C          63.7800   90.9801   11.1474 C.ar    1  UNL1        0.1019
      8 N          64.4227   91.4731   12.4099 N.ar    1  UNL1       -0.2739
      9 C          65.4631   92.5237   12.6626 C.ar    1  UNL1        0.0660
     10 C          65.9209   92.8042   14.0632 C.ar    1  UNL1        0.0233
     11 C          66.0456   93.2937   11.5147 C.ar    1  UNL1        0.0266
     12 C          65.3800   94.5517   11.0408 C.ar    1  UNL1        0.0031
     13 C          65.9626   95.3217    9.8929 C.ar    1  UNL1        0.0115
     14 C          67.2107   94.8339    9.2188 C.ar    1  UNL1        0.0585
     15 CL         67.7932   95.6039    8.0710 Cl      1  UNL1       -0.0822
     16 C          67.8762   93.5758    9.6928 C.ar    1  UNL1        0.0228
     17 C          67.2937   92.8058   10.8406 C.ar    1  UNL1        0.0599
     18 CL         67.9591   91.5478   11.3146 Cl      1  UNL1       -0.0822
     19 C          61.9353   89.1368   10.5605 C.ar    1  UNL1        0.0192
     20 C          60.9642   89.8628    9.6774 C.ar    1  UNL1        0.0015
     21 C          60.0992   89.0942    8.7229 C.ar    1  UNL1        0.0000
     22 C          60.2053   87.5997    8.6514 C.ar    1  UNL1        0.0000
     23 C          61.1764   86.8737    9.5345 C.ar    1  UNL1        0.0000
     24 C          62.0414   87.6423   10.4890 C.ar    1  UNL1        0.0015
     25 C          66.9613   93.8548   14.3158 C.3     1  UNL1        0.0948
     26 N          68.3519   93.4537   14.7102 N.3     1  UNL1       -0.3174
     27 H          68.3303   93.0105   15.6286 H       1  UNL1        0.1192
     28 H          68.9472   94.2812   14.7459 H       1  UNL1        0.1192
@<TRIPOS>BOND
     1     1     2    1
     2     2     3   ar
     3     3     4   ar
     4     4     5   ar
     5     5     6   ar
     6     6    19    1
     7    19    20   ar
     8    20    21   ar
     9    21    22   ar
    10    22    23   ar
    11    23    24   ar
    12     6     7   ar
    13     7     8   ar
    14     8     9   ar
    15     9    11    1
    16    11    12   ar
    17    12    13   ar
    18    13    14   ar
    19    14    15    1
    20    14    16   ar
    21    16    17   ar
    22    17    18    1
    23     9    10   ar
    24    10    25    1
    25    25    26    1
    26    10     2   ar
    27     8     4   ar
    28    17    11   ar
    29    24    19   ar
    30    26    27    1
    31    26    28    1
@<TRIPOS>MOLECULE
*****
 28 31 0 0 0
SMALL
GASTEIGER

@<TRIPOS>ATOM
      1 C          64.8863   90.2999   14.4973 C.3     1  UNL1        0.0520
      2 C          64.2305   89.1031   13.8744 C.ar    1  UNL1        0.0612
      3 N          64.4590   87.7375   14.4516 N.ar    1  UNL1       -0.2157
      4 C          63.8033   86.5408   13.8288 C.ar    1  UNL1        0.2366
      5 N          63.8420   85.0817   14.1745 N.ar    1  UNL1       -0.2096
      6 C          62.9817   84.3488   13.1882 C.ar    1  UNL1        0.1019
      7 C          62.4113   85.3549   12.2330 C.ar    1  UNL1        0.1019
      8 N          62.9192   86.7097   12.6289 N.ar    1  UNL1       -0.2739
      9 C          62.6907   88.0752   12.0518 C.ar    1  UNL1        0.0660
     10 C          63.3464   89.2719   12.6746 C.ar    1  UNL1        0.0233
     11 C          61.8065   88.2441   10.8519 C.ar    1  UNL1        0.0266
     12 C          62.1878   87.6147    9.5448 C.ar    1  UNL1        0.0031
     13 C          61.3035   87.7836    8.3450 C.ar    1  UNL1        0.0115
     14 C          60.0381   88.5819    8.4521 C.ar    1  UNL1        0.0585
     15 CL         59.1540   88.7507    7.2523 Cl      1  UNL1       -0.0822
     16 C          59.6570   89.2113    9.7593 C.ar    1  UNL1        0.0228
     17 C          60.5411   89.0425   10.9591 C.ar    1  UNL1        0.0599
     18 CL         60.1600   89.6719   12.2663 Cl      1  UNL1       -0.0822
     19 C          62.7350   82.8695   13.1618 C.ar    1  UNL1        0.0192
     20 C          62.0340   82.2054   14.3097 C.ar    1  UNL1        0.0015
     21 C          61.7874   80.7260   14.2832 C.ar    1  UNL1        0.0000
     22 C          62.2416   79.9107   13.1089 C.ar    1  UNL1        0.0000
     23 C          62.9426   80.5748   11.9611 C.ar    1  UNL1        0.0000
     24 C          63.1892   82.0542   11.9876 C.ar    1  UNL1        0.0015
     25 C          63.1179   90.6375   12.0975 C.3     1  UNL1        0.0948
     26 N          63.8620   91.0660   10.8675 N.3     1  UNL1       -0.3174
     27 H          64.8575   91.1343   11.0789 H       1  UNL1        0.1192
     28 H          63.5163   91.9752   10.5605 H       1  UNL1        0.1192
@<TRIPOS>BOND
     1     1     2    1
     2     2     3   ar
     3     3     4   ar
     4     4     5   ar
     5     5     6   ar
     6     6    19    1
     7    19    20   ar
     8    20    21   ar
     9    21    22   ar
    10    22    23   ar
    11    23    24   ar
    12     6     7   ar
    13     7     8   ar
    14     8     9   ar
    15     9    11    1
    16    11    12   ar
    17    12    13   ar
    18    13    14   ar
    19    14    15    1
    20    14    16   ar
    21    16    17   ar
    22    17    18    1
    23     9    10   ar
    24    10    25    1
    25    25    26    1
    26    10     2   ar
    27     8     4   ar
    28    17    11   ar
    29    24    19   ar
    30    26    27    1
    31    26    28    1
@<TRIPOS>MOLECULE
*****
 28 31 0 0 0
SMALL
GASTEIGER

@<TRIPOS>ATOM
      1 C          63.8966   81.6412   13.8101 C.3     1  UNL1        0.0520
      2 C          63.7524   83.1182   13.5915 C.ar    1  UNL1        0.0612
      3 N          64.3300   84.0832   14.5842 N.ar    1  UNL1       -0.2157
      4 C          64.1858   85.5601   14.3656 C.ar    1  UNL1        0.2366
      5 N          64.6467   86.7427   15.1649 N.ar    1  UNL1       -0.2096
      6 C          64.2099   87.9856   14.4477 C.ar    1  UNL1        0.1019
      7 C          63.4790   87.5712   13.2051 C.ar    1  UNL1        0.1019
      8 N          63.4641   86.0721   13.1544 N.ar    1  UNL1       -0.2739
      9 C          62.8866   85.1072   12.1617 C.ar    1  UNL1        0.0660
     10 C          63.0308   83.6302   12.3803 C.ar    1  UNL1        0.0233
     11 C          62.1649   85.6191   10.9505 C.ar    1  UNL1        0.0266
     12 C          60.9343   86.4616   11.1110 C.ar    1  UNL1        0.0031
     13 C          60.2127   86.9735    9.8997 C.ar    1  UNL1        0.0115
     14 C          60.7216   86.6431    8.5280 C.ar    1  UNL1        0.0585
     15 CL         60.0000   87.1550    7.3168 Cl      1  UNL1       -0.0822
     16 C          61.9523   85.8006    8.3675 C.ar    1  UNL1        0.0228
     17 C          62.6739   85.2886    9.5787 C.ar    1  UNL1        0.0599
     18 CL         63.9046   84.4462    9.4183 Cl      1  UNL1       -0.0822
     19 C          64.4601   89.3955   14.8946 C.ar    1  UNL1        0.0192
     20 C          63.6567   89.9798   16.0184 C.ar    1  UNL1        0.0015
     21 C          63.9069   91.3897   16.4653 C.ar    1  UNL1        0.0000
     22 C          64.9606   92.2153   15.7883 C.ar    1  UNL1        0.0000
     23 C          65.7640   91.6309   14.6645 C.ar    1  UNL1        0.0000
     24 C          65.5138   90.2210   14.2177 C.ar    1  UNL1        0.0015
     25 C          62.4532   82.6652   11.3876 C.3     1  UNL1        0.0948
     26 N          63.3250   81.6114   10.7716 N.3     1  UNL1       -0.3174
     27 H          64.0329   82.0551   10.1865 H       1  UNL1        0.1192
     28 H          62.7536   80.9885   10.2007 H       1  UNL1        0.1192
@<TRIPOS>BOND
     1     1     2    1
     2     2     3   ar
     3     3     4   ar
     4     4     5   ar
     5     5     6   ar
     6     6    19    1
     7    19    20   ar
     8    20    21   ar
     9    21    22   ar
    10    22    23   ar
    11    23    24   ar
    12     6     7   ar
    13     7     8   ar
    14     8     9   ar
    15     9    11    1
    16    11    12   ar
    17    12    13   ar
    18    13    14   ar
    19    14    15    1
    20    14    16   ar
    21    16    17   ar
    22    17    18    1
    23     9    10   ar
    24    10    25    1
    25    25    26    1
    26    10     2   ar
    27     8     4   ar
    28    17    11   ar
    29    24    19   ar
    30    26    27    1
    31    26    28    1
@<TRIPOS>MOLECULE
*****
 28 31 0 0 0
SMALL
GASTEIGER

@<TRIPOS>ATOM
      1 C          59.2182   88.5183    7.9127 C.3     1  UNL1        0.0520
      2 C          60.2704   88.4446    8.9794 C.ar    1  UNL1        0.0612
      3 N          60.6963   89.6894    9.6999 N.ar    1  UNL1       -0.2157
      4 C          61.7484   89.6157   10.7665 C.ar    1  UNL1        0.2366
      5 N          62.3665   90.6661   11.6409 N.ar    1  UNL1       -0.2096
      6 C          63.3747   89.9969   12.5273 C.ar    1  UNL1        0.1019
      7 C          63.3796   88.5328   12.2008 C.ar    1  UNL1        0.1019
      8 N          62.3745   88.2973   11.1125 N.ar    1  UNL1       -0.2739
      9 C          61.9485   87.0526   10.3920 C.ar    1  UNL1        0.0660
     10 C          60.8964   87.1263    9.3254 C.ar    1  UNL1        0.0233
     11 C          62.5746   85.7341   10.7380 C.ar    1  UNL1        0.0266
     12 C          63.4022   85.0067    9.7202 C.ar    1  UNL1        0.0031
     13 C          64.0283   83.6882   10.0663 C.ar    1  UNL1        0.0115
     14 C          63.8268   83.0972   11.4301 C.ar    1  UNL1        0.0585
     15 CL         64.4529   81.7789   11.7761 Cl      1  UNL1       -0.0822
     16 C          62.9992   83.8247   12.4480 C.ar    1  UNL1        0.0228
     17 C          62.3732   85.1431   12.1019 C.ar    1  UNL1        0.0599
     18 CL         61.5456   85.8706   13.1197 Cl      1  UNL1       -0.0822
     19 C          64.2281   90.6729   13.5591 C.ar    1  UNL1        0.0192
     20 C          65.6086   91.1385   13.2025 C.ar    1  UNL1        0.0015
     21 C          66.4620   91.8146   14.2345 C.ar    1  UNL1        0.0000
     22 C          65.9348   92.0251   15.6229 C.ar    1  UNL1        0.0000
     23 C          64.5542   91.5595   15.9795 C.ar    1  UNL1        0.0000
     24 C          63.7009   90.8834   14.9476 C.ar    1  UNL1        0.0015
     25 C          60.4705   85.8815    8.6048 C.3     1  UNL1        0.0948
     26 N          60.8944   85.6553    7.1839 N.3     1  UNL1       -0.3174
     27 H          60.4606   86.3568    6.5838 H       1  UNL1        0.1192
     28 H          60.6015   84.7248    6.8857 H       1  UNL1        0.1192
@<TRIPOS>BOND
     1     1     2    1
     2     2     3   ar
     3     3     4   ar
     4     4     5   ar
     5     5     6   ar
     6     6    19    1
     7    19    20   ar
     8    20    21   ar
     9    21    22   ar
    10    22    23   ar
    11    23    24   ar
    12     6     7   ar
    13     7     8   ar
    14     8     9   ar
    15     9    11    1
    16    11    12   ar
    17    12    13   ar
    18    13    14   ar
    19    14    15    1
    20    14    16   ar
    21    16    17   ar
    22    17    18    1
    23     9    10   ar
    24    10    25    1
    25    25    26    1
    26    10     2   ar
    27     8     4   ar
    28    17    11   ar
    29    24    19   ar
    30    26    27    1
    31    26    28    1
