@<TRIPOS>MOLECULE
*****
 33 37 0 0 0
SMALL
GASTEIGER

@<TRIPOS>ATOM
      1 C          62.7114   87.2532   11.7532 C.2     1  UNL1        0.2506
      2 O          63.3638   87.3732   13.0986 O.2     1  UNL1       -0.2699
      3 N          61.8915   88.3873   11.2135 N.am    1  UNL1       -0.2723
      4 C          61.2390   88.2673    9.8681 C.3     1  UNL1        0.1257
      5 C          60.4191   89.4016    9.3284 C.3     1  UNL1        0.1637
      6 O          60.2517   90.6558   10.1339 O.3     1  UNL1       -0.3502
      7 C          60.9041   90.7758   11.4792 C.3     1  UNL1        0.1622
      8 C          61.7240   89.6416   12.0190 C.3     1  UNL1        0.1096
      9 C          62.8060   84.8384    7.1532 C.3     1  UNL1        0.0310
     10 C          62.9261   84.7916    8.6477 C.ar    1  UNL1       -0.0216
     11 C          63.2137   83.4906    9.3365 C.ar    1  UNL1       -0.0026
     12 C          63.3339   83.4437   10.8310 C.ar    1  UNL1        0.0207
     13 C          63.1664   84.6979   11.6365 C.ar    1  UNL1        0.1072
     14 C          62.8788   85.9989   10.9477 C.ar    1  UNL1        0.0726
     15 C          62.7587   86.0457    9.4532 C.ar    1  UNL1        0.0018
     16 N          63.2866   84.6510   13.1310 N.ar    1  UNL1       -0.1477
     17 N          64.5667   84.6450   13.9129 N.ar    1  UNL1       -0.1447
     18 C          64.2190   84.5922   15.3711 C.ar    1  UNL1        0.1446
     19 C          62.7240   84.5657   15.4904 C.ar    1  UNL1        0.1446
     20 N          62.1477   84.6021   14.1060 N.ar    1  UNL1       -0.1447
     21 C          62.3765   89.7616   13.3644 C.3     1  UNL1        0.0484
     22 C          63.5936   90.6218   13.5336 C.ar    1  UNL1       -0.0229
     23 C          64.1976   91.3087   12.3448 C.ar    1  UNL1        0.0146
     24 C          65.4148   92.1689   12.5140 C.ar    1  UNL1        0.0825
     25 C          66.0279   92.3421   13.8720 C.ar    1  UNL1        0.0188
     26 C          65.4238   91.6551   15.0608 C.ar    1  UNL1       -0.0030
     27 C          64.2067   90.7950   14.8916 C.ar    1  UNL1       -0.0256
     28 C          63.6026   90.1080   16.0803 C.3     1  UNL1        0.0307
     29 N          66.0189   92.8559   11.3253 N.ar    1  UNL1       -0.2282
     30 C          67.1724   92.3535   10.5086 C.ar    1  UNL1        0.1020
     31 C          67.4419   93.3529    9.4231 C.ar    1  UNL1        0.0431
     32 C          66.4549   94.4731    9.5688 C.ar    1  UNL1        0.1221
     33 N          65.5754   94.1658   10.7444 N.ar    1  UNL1       -0.1635
@<TRIPOS>BOND
     1     9    10    1
     2    10    11   ar
     3    11    12   ar
     4    12    13   ar
     5    13    16    1
     6    16    17   ar
     7    17    18   ar
     8    18    19   ar
     9    19    20   ar
    10    13    14   ar
    11    14     1    1
    12     1     2    2
    13     1     3   am
    14     3     4    1
    15     4     5    1
    16     5     6    1
    17     6     7    1
    18     7     8    1
    19     8    21    1
    20    21    22    1
    21    22    23   ar
    22    23    24   ar
    23    24    29    1
    24    29    30   ar
    25    30    31   ar
    26    31    32   ar
    27    32    33   ar
    28    24    25   ar
    29    25    26   ar
    30    26    27   ar
    31    27    28    1
    32    14    15   ar
    33    15    10   ar
    34    20    16   ar
    35     8     3    1
    36    27    22   ar
    37    33    29   ar
@<TRIPOS>MOLECULE
*****
 33 37 0 0 0
SMALL
GASTEIGER

@<TRIPOS>ATOM
      1 C          63.3446   87.1208   13.0736 C.2     1  UNL1        0.2506
      2 O          63.8707   87.6747   14.3646 O.2     1  UNL1       -0.2699
      3 N          62.8254   88.0486   12.0156 N.am    1  UNL1       -0.2723
      4 C          62.2993   87.4948   10.7247 C.3     1  UNL1        0.1257
      5 C          61.7801   88.4227    9.6667 C.3     1  UNL1        0.1637
      6 O          61.7869   89.9045    9.8996 O.3     1  UNL1       -0.3502
      7 C          62.3130   90.4584   11.1905 C.3     1  UNL1        0.1622
      8 C          62.8322   89.5305   12.2485 C.3     1  UNL1        0.1096
      9 C          63.7388   83.0717    9.8410 C.3     1  UNL1        0.0310
     10 C          63.5349   83.6144   11.2245 C.ar    1  UNL1       -0.0216
     11 C          63.3240   82.6754   12.3750 C.ar    1  UNL1       -0.0026
     12 C          63.1201   83.2181   13.7584 C.ar    1  UNL1        0.0207
     13 C          63.1269   84.6999   13.9913 C.ar    1  UNL1        0.1072
     14 C          63.3377   85.6389   12.8408 C.ar    1  UNL1        0.0726
     15 C          63.5417   85.0962   11.4574 C.ar    1  UNL1        0.0018
     16 N          62.9230   85.2426   15.3747 N.ar    1  UNL1       -0.1477
     17 N          64.0052   85.6333   16.3370 N.ar    1  UNL1       -0.1447
     18 C          63.3521   86.1221   17.5958 C.ar    1  UNL1        0.1446
     19 C          61.8661   86.0335   17.4114 C.ar    1  UNL1        0.1446
     20 N          61.6009   85.4900   16.0387 N.ar    1  UNL1       -0.1447
     21 C          63.3583   90.0844   13.5394 C.3     1  UNL1        0.0484
     22 C          64.4864   91.0729   13.5270 C.ar    1  UNL1       -0.0229
     23 C          65.1288   91.4615   12.2285 C.ar    1  UNL1        0.0146
     24 C          66.2570   92.4500   12.2160 C.ar    1  UNL1        0.0825
     25 C          66.7427   93.0499   13.5022 C.ar    1  UNL1        0.0188
     26 C          66.1003   92.6613   14.8008 C.ar    1  UNL1       -0.0030
     27 C          64.9722   91.6728   14.8132 C.ar    1  UNL1       -0.0256
     28 C          64.3298   91.2842   16.1117 C.3     1  UNL1        0.0307
     29 N          66.8994   92.8386   10.9175 N.ar    1  UNL1       -0.2282
     30 C          67.9565   92.0622   10.1897 C.ar    1  UNL1        0.1020
     31 C          68.3079   92.8155    8.9411 C.ar    1  UNL1        0.0431
     32 C          67.4680   94.0576    8.8972 C.ar    1  UNL1        0.1221
     33 N          66.5975   94.0718   10.1187 N.ar    1  UNL1       -0.1635
@<TRIPOS>BOND
     1     9    10    1
     2    10    11   ar
     3    11    12   ar
     4    12    13   ar
     5    13    16    1
     6    16    17   ar
     7    17    18   ar
     8    18    19   ar
     9    19    20   ar
    10    13    14   ar
    11    14     1    1
    12     1     2    2
    13     1     3   am
    14     3     4    1
    15     4     5    1
    16     5     6    1
    17     6     7    1
    18     7     8    1
    19     8    21    1
    20    21    22    1
    21    22    23   ar
    22    23    24   ar
    23    24    29    1
    24    29    30   ar
    25    30    31   ar
    26    31    32   ar
    27    32    33   ar
    28    24    25   ar
    29    25    26   ar
    30    26    27   ar
    31    27    28    1
    32    14    15   ar
    33    15    10   ar
    34    20    16   ar
    35     8     3    1
    36    27    22   ar
    37    33    29   ar
@<TRIPOS>MOLECULE
*****
 33 37 0 0 0
SMALL
GASTEIGER

@<TRIPOS>ATOM
      1 C          63.0328   86.6527   12.5786 C.2     1  UNL1        0.2506
      2 O          63.6074   87.5427   13.6405 O.2     1  UNL1       -0.2699
      3 N          62.0997   87.2188   11.5497 N.am    1  UNL1       -0.2723
      4 C          61.5251   86.3289   10.4877 C.3     1  UNL1        0.1257
      5 C          60.5920   86.8951    9.4587 C.3     1  UNL1        0.1637
      6 O          60.2334   88.3512    9.4918 O.3     1  UNL1       -0.3502
      7 C          60.8080   89.2412   10.5537 C.3     1  UNL1        0.1622
      8 C          61.7411   88.6750   11.5826 C.3     1  UNL1        0.1096
      9 C          64.3462   82.4014    9.8950 C.3     1  UNL1        0.0310
     10 C          64.0481   83.0709   11.2038 C.ar    1  UNL1       -0.0216
     11 C          64.1086   82.2843   12.4795 C.ar    1  UNL1       -0.0026
     12 C          63.8104   82.9538   13.7883 C.ar    1  UNL1        0.0207
     13 C          63.4519   84.4099   13.8213 C.ar    1  UNL1        0.1072
     14 C          63.3914   85.1965   12.5456 C.ar    1  UNL1        0.0726
     15 C          63.6895   84.5270   11.2368 C.ar    1  UNL1        0.0018
     16 N          63.1538   85.0794   15.1301 N.ar    1  UNL1       -0.1477
     17 N          64.1333   85.8380   15.9757 N.ar    1  UNL1       -0.1447
     18 C          63.4087   86.3353   17.1913 C.ar    1  UNL1        0.1446
     19 C          61.9813   85.8841   17.0970 C.ar    1  UNL1        0.1446
     20 N          61.8237   85.1079   15.8231 N.ar    1  UNL1       -0.1447
     21 C          62.3157   89.5650   12.6446 C.3     1  UNL1        0.0484
     22 C          63.4320   90.5091   12.3088 C.ar    1  UNL1       -0.0229
     23 C          64.4586   90.8556   13.3460 C.ar    1  UNL1        0.0146
     24 C          65.5749   91.7997   13.0103 C.ar    1  UNL1        0.0825
     25 C          65.6645   92.3972   11.6374 C.ar    1  UNL1        0.0188
     26 C          64.6378   92.0506   10.6001 C.ar    1  UNL1       -0.0030
     27 C          63.5215   91.1065   10.9359 C.ar    1  UNL1       -0.0256
     28 C          62.4949   90.7600    9.8987 C.3     1  UNL1        0.0307
     29 N          66.6016   92.1463   14.0475 N.ar    1  UNL1       -0.2282
     30 C          66.3384   92.3759   15.5063 C.ar    1  UNL1        0.1020
     31 C          67.6458   92.6956   16.1684 C.ar    1  UNL1        0.0431
     32 C          68.7171   92.6636   15.1189 C.ar    1  UNL1        0.1221
     33 N          68.0716   92.3241   13.8081 N.ar    1  UNL1       -0.1635
@<TRIPOS>BOND
     1     9    10    1
     2    10    11   ar
     3    11    12   ar
     4    12    13   ar
     5    13    16    1
     6    16    17   ar
     7    17    18   ar
     8    18    19   ar
     9    19    20   ar
    10    13    14   ar
    11    14     1    1
    12     1     2    2
    13     1     3   am
    14     3     4    1
    15     4     5    1
    16     5     6    1
    17     6     7    1
    18     7     8    1
    19     8    21    1
    20    21    22    1
    21    22    23   ar
    22    23    24   ar
    23    24    29    1
    24    29    30   ar
    25    30    31   ar
    26    31    32   ar
    27    32    33   ar
    28    24    25   ar
    29    25    26   ar
    30    26    27   ar
    31    27    28    1
    32    14    15   ar
    33    15    10   ar
    34    20    16   ar
    35     8     3    1
    36    27    22   ar
    37    33    29   ar
@<TRIPOS>MOLECULE
*****
 33 37 0 0 0
SMALL
GASTEIGER

@<TRIPOS>ATOM
      1 C          62.3451   84.5098   12.1934 C.2     1  UNL1        0.2506
      2 O          61.7069   85.5297   13.0892 O.2     1  UNL1       -0.2699
      3 N          62.6248   84.8426   10.7578 N.am    1  UNL1       -0.2723
      4 C          63.2630   83.8226    9.8620 C.3     1  UNL1        0.1257
      5 C          63.5427   84.1555    8.4264 C.3     1  UNL1        0.1637
      6 O          63.1842   85.5083    7.8866 O.3     1  UNL1       -0.3502
      7 C          62.5460   86.5283    8.7823 C.3     1  UNL1        0.1622
      8 C          62.2663   86.1954   10.2179 C.3     1  UNL1        0.1096
      9 C          62.6605   79.3594   11.5813 C.3     1  UNL1        0.0310
     10 C          62.8612   80.5818   12.4272 C.ar    1  UNL1       -0.0216
     11 C          63.4204   80.4514   13.8129 C.ar    1  UNL1       -0.0026
     12 C          63.6212   81.6737   14.6588 C.ar    1  UNL1        0.0207
     13 C          63.2628   83.0265   14.1190 C.ar    1  UNL1        0.1072
     14 C          62.7036   83.1569   12.7333 C.ar    1  UNL1        0.0726
     15 C          62.5028   81.9346   11.8874 C.ar    1  UNL1        0.0018
     16 N          63.4635   84.2489   14.9649 N.ar    1  UNL1       -0.1477
     17 N          64.5536   85.2659   14.8000 N.ar    1  UNL1       -0.1447
     18 C          64.3733   86.3145   15.8574 C.ar    1  UNL1        0.1446
     19 C          63.1716   85.9454   16.6758 C.ar    1  UNL1        0.1446
     20 N          62.6094   84.6688   16.1242 N.ar    1  UNL1       -0.1447
     21 C          61.6281   87.2154   11.1137 C.3     1  UNL1        0.0484
     22 C          62.0845   88.6435   11.0686 C.ar    1  UNL1       -0.0229
     23 C          63.0804   89.1446   12.0722 C.ar    1  UNL1        0.0146
     24 C          63.5368   90.5728   12.0272 C.ar    1  UNL1        0.0825
     25 C          62.9974   91.4999   10.9786 C.ar    1  UNL1        0.0188
     26 C          62.0015   90.9987    9.9750 C.ar    1  UNL1       -0.0030
     27 C          61.5451   89.5706   10.0200 C.ar    1  UNL1       -0.0256
     28 C          60.5493   89.0695    9.0164 C.3     1  UNL1        0.0307
     29 N          64.5326   91.0739   13.0308 N.ar    1  UNL1       -0.2282
     30 C          65.0110   90.3326   14.2439 C.ar    1  UNL1        0.1020
     31 C          65.9990   91.2048   14.9604 C.ar    1  UNL1        0.0431
     32 C          66.1312   92.4851   14.1900 C.ar    1  UNL1        0.1221
     33 N          65.2249   92.4042   12.9975 N.ar    1  UNL1       -0.1635
@<TRIPOS>BOND
     1     9    10    1
     2    10    11   ar
     3    11    12   ar
     4    12    13   ar
     5    13    16    1
     6    16    17   ar
     7    17    18   ar
     8    18    19   ar
     9    19    20   ar
    10    13    14   ar
    11    14     1    1
    12     1     2    2
    13     1     3   am
    14     3     4    1
    15     4     5    1
    16     5     6    1
    17     6     7    1
    18     7     8    1
    19     8    21    1
    20    21    22    1
    21    22    23   ar
    22    23    24   ar
    23    24    29    1
    24    29    30   ar
    25    30    31   ar
    26    31    32   ar
    27    32    33   ar
    28    24    25   ar
    29    25    26   ar
    30    26    27   ar
    31    27    28    1
    32    14    15   ar
    33    15    10   ar
    34    20    16   ar
    35     8     3    1
    36    27    22   ar
    37    33    29   ar
@<TRIPOS>MOLECULE
*****
 33 37 0 0 0
SMALL
GASTEIGER

@<TRIPOS>ATOM
      1 C          63.2682   87.5758   12.8998 C.2     1  UNL1        0.2506
      2 O          63.2273   88.3524   11.6171 O.2     1  UNL1       -0.2699
      3 N          63.2849   88.2987   14.2140 N.am    1  UNL1       -0.2723
      4 C          63.3258   87.5221   15.4966 C.3     1  UNL1        0.1257
      5 C          63.3426   88.2450   16.8109 C.3     1  UNL1        0.1637
      6 O          63.3184   89.7444   16.8424 O.3     1  UNL1       -0.3502
      7 C          63.2776   90.5210   15.5598 C.3     1  UNL1        0.1622
      8 C          63.2608   89.7982   14.2456 C.3     1  UNL1        0.1096
      9 C          64.9029   83.0589   14.8809 C.3     1  UNL1        0.0310
     10 C          64.1097   83.8179   13.8587 C.ar    1  UNL1       -0.0216
     11 C          63.3407   83.0774   12.8051 C.ar    1  UNL1       -0.0026
     12 C          62.5475   83.8364   11.7829 C.ar    1  UNL1        0.0207
     13 C          62.5233   85.3359   11.8145 C.ar    1  UNL1        0.1072
     14 C          63.2923   86.0763   12.8682 C.ar    1  UNL1        0.0726
     15 C          64.0855   85.3173   13.8903 C.ar    1  UNL1        0.0018
     16 N          61.7301   86.0949   10.7924 N.ar    1  UNL1       -0.1477
     17 N          60.5735   87.0076   11.0738 N.ar    1  UNL1       -0.1447
     18 C          60.0828   87.5513    9.7647 C.ar    1  UNL1        0.1446
     19 C          60.9361   86.9745    8.6742 C.ar    1  UNL1        0.1446
     20 N          61.9542   86.0744    9.3093 N.ar    1  UNL1       -0.1447
     21 C          63.2199   90.5748   12.9629 C.3     1  UNL1        0.0484
     22 C          64.4013   91.4009   12.5484 C.ar    1  UNL1       -0.0229
     23 C          65.4703   91.7346   13.5462 C.ar    1  UNL1        0.0146
     24 C          66.6517   92.5608   13.1317 C.ar    1  UNL1        0.0825
     25 C          66.7640   93.0533   11.7193 C.ar    1  UNL1        0.0188
     26 C          65.6949   92.7196   10.7214 C.ar    1  UNL1       -0.0030
     27 C          64.5135   91.8934   11.1360 C.ar    1  UNL1       -0.0256
     28 C          63.4445   91.5598   10.1381 C.3     1  UNL1        0.0307
     29 N          67.7208   92.8944   14.1295 N.ar    1  UNL1       -0.2282
     30 C          67.5623   93.7831   15.3275 C.ar    1  UNL1        0.1020
     31 C          68.8796   93.8359   16.0430 C.ar    1  UNL1        0.0431
     32 C          69.8522   92.9799   15.2872 C.ar    1  UNL1        0.1221
     33 N          69.1360   92.3980   14.1047 N.ar    1  UNL1       -0.1635
@<TRIPOS>BOND
     1     9    10    1
     2    10    11   ar
     3    11    12   ar
     4    12    13   ar
     5    13    16    1
     6    16    17   ar
     7    17    18   ar
     8    18    19   ar
     9    19    20   ar
    10    13    14   ar
    11    14     1    1
    12     1     2    2
    13     1     3   am
    14     3     4    1
    15     4     5    1
    16     5     6    1
    17     6     7    1
    18     7     8    1
    19     8    21    1
    20    21    22    1
    21    22    23   ar
    22    23    24   ar
    23    24    29    1
    24    29    30   ar
    25    30    31   ar
    26    31    32   ar
    27    32    33   ar
    28    24    25   ar
    29    25    26   ar
    30    26    27   ar
    31    27    28    1
    32    14    15   ar
    33    15    10   ar
    34    20    16   ar
    35     8     3    1
    36    27    22   ar
    37    33    29   ar
@<TRIPOS>MOLECULE
*****
 33 37 0 0 0
SMALL
GASTEIGER

@<TRIPOS>ATOM
      1 C          64.3290   90.8138   13.0405 C.2     1  UNL1        0.2506
      2 O          63.7934   91.4708   11.8029 O.2     1  UNL1       -0.2699
      3 N          64.0912   89.3517   13.2763 N.am    1  UNL1       -0.2723
      4 C          64.6268   88.6947   14.5138 C.3     1  UNL1        0.1257
      5 C          64.3890   87.2325   14.7496 C.3     1  UNL1        0.1637
      6 O          63.6156   86.4274   13.7478 O.3     1  UNL1       -0.3502
      7 C          63.0801   87.0844   12.5102 C.3     1  UNL1        0.1622
      8 C          63.3178   88.5465   12.2745 C.3     1  UNL1        0.1096
      9 C          65.0046   92.4842   17.9143 C.3     1  UNL1        0.0310
     10 C          65.4401   92.4542   16.4792 C.ar    1  UNL1       -0.0216
     11 C          66.6490   93.2294   16.0459 C.ar    1  UNL1       -0.0026
     12 C          67.0845   93.1994   14.6109 C.ar    1  UNL1        0.0207
     13 C          66.3112   92.3942   13.6091 C.ar    1  UNL1        0.1072
     14 C          65.1024   91.6191   14.0423 C.ar    1  UNL1        0.0726
     15 C          64.6668   91.6491   15.4774 C.ar    1  UNL1        0.0018
     16 N          66.7468   92.3642   12.1740 N.ar    1  UNL1       -0.1477
     17 N          68.0115   91.7519   11.6491 N.ar    1  UNL1       -0.1447
     18 C          68.0404   91.9505   10.1625 C.ar    1  UNL1        0.1446
     19 C          66.7936   92.6856    9.7687 C.ar    1  UNL1        0.1446
     20 N          65.9941   92.9412   11.0119 N.ar    1  UNL1       -0.1447
     21 C          62.7823   89.2034   11.0369 C.3     1  UNL1        0.0484
     22 C          61.7078   88.5303   10.2355 C.ar    1  UNL1       -0.0229
     23 C          62.0665   87.4507    9.2578 C.ar    1  UNL1        0.0146
     24 C          60.9920   86.7774    8.4563 C.ar    1  UNL1        0.0825
     25 C          59.5589   87.1838    8.6325 C.ar    1  UNL1        0.0188
     26 C          59.2003   88.2635    9.6102 C.ar    1  UNL1       -0.0030
     27 C          60.2747   88.9367   10.4116 C.ar    1  UNL1       -0.0256
     28 C          59.9161   90.0163   11.3893 C.3     1  UNL1        0.0307
     29 N          61.3507   85.6978    7.4787 N.ar    1  UNL1       -0.2282
     30 C          62.7194   85.1237    7.2621 C.ar    1  UNL1        0.1020
     31 C          62.6182   84.0738    6.1956 C.ar    1  UNL1        0.0431
     32 C          61.1869   83.9991    5.7530 C.ar    1  UNL1        0.1221
     33 N          60.4035   85.0027    6.5460 N.ar    1  UNL1       -0.1635
@<TRIPOS>BOND
     1     9    10    1
     2    10    11   ar
     3    11    12   ar
     4    12    13   ar
     5    13    16    1
     6    16    17   ar
     7    17    18   ar
     8    18    19   ar
     9    19    20   ar
    10    13    14   ar
    11    14     1    1
    12     1     2    2
    13     1     3   am
    14     3     4    1
    15     4     5    1
    16     5     6    1
    17     6     7    1
    18     7     8    1
    19     8    21    1
    20    21    22    1
    21    22    23   ar
    22    23    24   ar
    23    24    29    1
    24    29    30   ar
    25    30    31   ar
    26    31    32   ar
    27    32    33   ar
    28    24    25   ar
    29    25    26   ar
    30    26    27   ar
    31    27    28    1
    32    14    15   ar
    33    15    10   ar
    34    20    16   ar
    35     8     3    1
    36    27    22   ar
    37    33    29   ar
