@<TRIPOS>MOLECULE
*****
 37 43 0 0 0
SMALL
GASTEIGER

@<TRIPOS>ATOM
      1 C          62.0164   85.3865   10.7971 C.2     1  UNL1       -0.0378
      2 C          62.3630   85.8220    9.4041 C.2     1  UNL1       -0.0080
      3 C          61.8351   87.1209    8.8712 C.2     1  UNL1        0.0022
      4 C          60.9607   87.9845    9.7313 C.2     1  UNL1        0.0350
      5 C          60.2978   89.3064    9.4805 C.2     1  UNL1        0.1040
      6 N          59.5415   89.6881   10.7184 N.2     1  UNL1       -0.1483
      7 N          59.7371   88.6019   11.7343 N.2     1  UNL1       -0.1520
      8 C          60.6141   87.5490   11.1242 C.2     1  UNL1        0.0860
      9 C          61.1420   86.2500   11.6571 C.3     1  UNL1        0.0697
     10 O          63.7861   80.6997   12.5224 O.2     1  UNL1       -0.2744
     11 C          63.9338   82.1142   12.9991 C.2     1  UNL1        0.2293
     12 N          64.7029   82.5619   14.2067 N.am    1  UNL1       -0.2839
     13 C          64.5827   84.0538   14.3059 C.ar    1  UNL1        0.0467
     14 C          65.1323   85.0416   15.2919 C.ar    1  UNL1        0.0144
     15 C          64.8386   86.5038   15.1316 C.ar    1  UNL1        0.0013
     16 C          63.9953   86.9781   13.9854 C.ar    1  UNL1       -0.0002
     17 C          63.4457   85.9903   12.9994 C.ar    1  UNL1       -0.0026
     18 C          63.7395   84.5282   13.1596 C.ar    1  UNL1       -0.0008
     19 C          63.3384   83.3294   12.3521 C.3     1  UNL1        0.0927
     20 C          62.6644   82.5956   11.2308 C.3     1  UNL1        0.0179
     21 C          62.5443   84.0874   11.3300 C.3     1  UNL1        0.0315
     22 H          65.1993   81.9789   14.8255 H       1  UNL1        0.1549
     23 C          60.3772   90.1064    8.2140 C.2     1  UNL1        0.0209
     24 C          59.4208   89.8312    7.0919 C.2     1  UNL1        0.0016
     25 C          59.5002   90.6311    5.8254 C.ar    1  UNL1        0.0000
     26 C          60.8245   90.8424    5.1536 C.ar    1  UNL1       -0.0003
     27 C          60.9040   91.6423    3.8872 C.ar    1  UNL1       -0.0029
     28 C          59.6590   92.2311    3.2926 C.ar    1  UNL1       -0.0061
     29 C          58.3346   92.0199    3.9645 C.ar    1  UNL1       -0.0029
     30 C          58.2551   91.2199    5.2309 C.ar    1  UNL1       -0.0003
     31 C          59.7385   93.0310    2.0262 C.3     1  UNL1        0.0992
     32 N          61.0607   93.5594    1.5547 N.3     1  UNL1       -0.2665
     33 C          61.5337   94.9785    1.6667 C.3     1  UNL1        0.0753
     34 C          62.9075   95.0577    1.0696 C.3     1  UNL1        0.0540
     35 C          63.2834   93.6876    0.5884 C.3     1  UNL1        0.1782
     36 F          64.5742   93.3098   -0.0759 F       1  UNL1       -0.2357
     37 C          62.1421   92.7616    0.8882 C.3     1  UNL1        0.1080
@<TRIPOS>BOND
     1    10    11    2
     2    11    12   am
     3    12    13    1
     4    13    14   ar
     5    14    15   ar
     6    15    16   ar
     7    16    17   ar
     8    17    18   ar
     9    18    19    1
    10    19    20    1
    11    20    21    1
    12    21     1    1
    13     1     2    2
    14     2     3    1
    15     3     4    2
    16     4     5    1
    17     5    23    1
    18    23    24    2
    19    24    25    1
    20    25    26   ar
    21    26    27   ar
    22    27    28   ar
    23    28    31    1
    24    31    32    1
    25    32    33    1
    26    33    34    1
    27    34    35    1
    28    35    36    1
    29    35    37    1
    30    28    29   ar
    31    29    30   ar
    32     5     6    2
    33     6     7    1
    34     7     8    2
    35     8     9    1
    36    19    11    1
    37     9     1    1
    38    18    13   ar
    39    21    19    1
    40     8     4    1
    41    30    25   ar
    42    37    32    1
    43    12    22    1
@<TRIPOS>MOLECULE
*****
 37 43 0 0 0
SMALL
GASTEIGER

@<TRIPOS>ATOM
      1 C          63.0754   83.9009   14.7405 C.2     1  UNL1       -0.0378
      2 C          63.7626   84.9077   13.8662 C.2     1  UNL1       -0.0080
      3 C          63.9214   86.3237   14.3349 C.2     1  UNL1        0.0022
      4 C          63.3930   86.7329   15.6778 C.2     1  UNL1        0.0350
      5 C          63.4024   88.0463   16.4023 C.2     1  UNL1        0.1040
      6 N          62.7209   87.8513   17.7243 N.2     1  UNL1       -0.1483
      7 N          62.2905   86.4173   17.8167 N.2     1  UNL1       -0.1520
      8 C          62.7058   85.7262   16.5520 C.2     1  UNL1        0.0860
      9 C          62.5470   84.3101   16.0832 C.3     1  UNL1        0.0697
     10 O          62.4875   78.8408   13.2828 O.2     1  UNL1       -0.2744
     11 C          62.7412   80.1205   12.5426 C.2     1  UNL1        0.2293
     12 N          62.9022   80.2635   11.0581 N.am    1  UNL1       -0.2839
     13 C          63.1389   81.7133   10.7549 C.ar    1  UNL1        0.0467
     14 C          63.3660   82.4450    9.4654 C.ar    1  UNL1        0.0144
     15 C          63.5782   83.9298    9.4729 C.ar    1  UNL1        0.0013
     16 C          63.5635   84.6830   10.7700 C.ar    1  UNL1       -0.0002
     17 C          63.3364   83.9513   12.0596 C.ar    1  UNL1       -0.0026
     18 C          63.1241   82.4665   12.0521 C.ar    1  UNL1       -0.0008
     19 C          62.8783   81.4821   13.1569 C.3     1  UNL1        0.0927
     20 C          62.6800   81.0350   14.5749 C.3     1  UNL1        0.0179
     21 C          62.9166   82.4848   14.2717 C.3     1  UNL1        0.0315
     22 H          62.8600   79.5338   10.3986 H       1  UNL1        0.1549
     23 C          63.9900   89.3294   15.8941 C.2     1  UNL1        0.0209
     24 C          64.2158   89.5203   14.4235 C.2     1  UNL1        0.0016
     25 C          64.8035   90.8035   13.9153 C.ar    1  UNL1        0.0000
     26 C          65.7788   91.5683   14.7602 C.ar    1  UNL1       -0.0003
     27 C          66.3664   92.8514   14.2520 C.ar    1  UNL1       -0.0029
     28 C          65.9787   93.3698   12.8989 C.ar    1  UNL1       -0.0061
     29 C          65.0034   92.6050   12.0539 C.ar    1  UNL1       -0.0029
     30 C          64.4157   91.3218   12.5621 C.ar    1  UNL1       -0.0003
     31 C          66.5664   94.6529   12.3907 C.3     1  UNL1        0.0992
     32 N          66.9181   94.7937   10.9394 N.3     1  UNL1       -0.2665
     33 C          67.3459   93.6848   10.0243 C.3     1  UNL1        0.0753
     34 C          67.5960   94.2738    8.6676 C.3     1  UNL1        0.0540
     35 C          67.3228   95.7468    8.7443 C.3     1  UNL1        0.1782
     36 F          67.4467   96.7264    7.6151 F       1  UNL1       -0.2357
     37 C          66.9038   96.0680   10.1483 C.3     1  UNL1        0.1080
@<TRIPOS>BOND
     1    10    11    2
     2    11    12   am
     3    12    13    1
     4    13    14   ar
     5    14    15   ar
     6    15    16   ar
     7    16    17   ar
     8    17    18   ar
     9    18    19    1
    10    19    20    1
    11    20    21    1
    12    21     1    1
    13     1     2    2
    14     2     3    1
    15     3     4    2
    16     4     5    1
    17     5    23    1
    18    23    24    2
    19    24    25    1
    20    25    26   ar
    21    26    27   ar
    22    27    28   ar
    23    28    31    1
    24    31    32    1
    25    32    33    1
    26    33    34    1
    27    34    35    1
    28    35    36    1
    29    35    37    1
    30    28    29   ar
    31    29    30   ar
    32     5     6    2
    33     6     7    1
    34     7     8    2
    35     8     9    1
    36    19    11    1
    37     9     1    1
    38    18    13   ar
    39    21    19    1
    40     8     4    1
    41    30    25   ar
    42    37    32    1
    43    12    22    1
@<TRIPOS>MOLECULE
*****
 37 43 0 0 0
SMALL
GASTEIGER

@<TRIPOS>ATOM
      1 C          62.0546   87.5483   11.2168 C.2     1  UNL1       -0.0378
      2 C          62.5305   88.7855   10.5146 C.2     1  UNL1       -0.0080
      3 C          61.7826   89.3064    9.3232 C.2     1  UNL1        0.0022
      4 C          60.5589   88.5900    8.8340 C.2     1  UNL1        0.0350
      5 C          59.6234   88.8650    7.6942 C.2     1  UNL1        0.1040
      6 N          58.5693   87.7977    7.6918 N.2     1  UNL1       -0.1483
      7 N          58.8534   86.8632    8.8303 N.2     1  UNL1       -0.1520
      8 C          60.0830   87.3528    9.5361 C.2     1  UNL1        0.0860
      9 C          60.8309   86.8320   10.7275 C.3     1  UNL1        0.0697
     10 O          64.6535   85.8862   15.5247 O.2     1  UNL1       -0.2744
     11 C          64.3722   85.2904   14.1772 C.2     1  UNL1        0.2293
     12 N          64.8160   83.9392   13.7006 N.am    1  UNL1       -0.2839
     13 C          64.3158   83.7548   12.2985 C.ar    1  UNL1        0.0467
     14 C          64.4487   82.6201   11.3265 C.ar    1  UNL1        0.0144
     15 C          63.8286   82.7227    9.9646 C.ar    1  UNL1        0.0013
     16 C          63.0755   83.9600    9.5747 C.ar    1  UNL1       -0.0002
     17 C          62.9426   85.0947   10.5467 C.ar    1  UNL1       -0.0026
     18 C          63.5627   84.9921   11.9086 C.ar    1  UNL1       -0.0008
     19 C          63.5976   85.9411   13.0697 C.3     1  UNL1        0.0927
     20 C          63.3027   87.2118   13.8102 C.3     1  UNL1        0.0179
     21 C          62.8025   87.0274   12.4082 C.3     1  UNL1        0.0315
     22 H          65.3432   83.2877   14.2173 H       1  UNL1        0.1549
     23 C          59.7242   90.0067    6.7266 C.2     1  UNL1        0.0209
     24 C          60.6184   89.8967    5.5273 C.2     1  UNL1        0.0016
     25 C          60.7192   91.0385    4.5597 C.ar    1  UNL1        0.0000
     26 C          59.5682   91.9862    4.3953 C.ar    1  UNL1       -0.0003
     27 C          59.6691   93.1279    3.4277 C.ar    1  UNL1       -0.0029
     28 C          60.9209   93.3220    2.6244 C.ar    1  UNL1       -0.0061
     29 C          62.0720   92.3742    2.7888 C.ar    1  UNL1       -0.0029
     30 C          61.9712   91.2325    3.7564 C.ar    1  UNL1       -0.0003
     31 C          61.0217   94.4637    1.6568 C.3     1  UNL1        0.0992
     32 N          62.1868   94.5487    0.7160 N.3     1  UNL1       -0.2665
     33 C          62.2775   93.9045   -0.6355 C.3     1  UNL1        0.0753
     34 C          63.6126   94.2505   -1.2254 C.3     1  UNL1        0.0540
     35 C          64.3470   95.1086   -0.2383 C.3     1  UNL1        0.1782
     36 F          65.7213   95.6818   -0.4193 F       1  UNL1       -0.2357
     37 C          63.4659   95.2930    0.9615 C.3     1  UNL1        0.1080
@<TRIPOS>BOND
     1    10    11    2
     2    11    12   am
     3    12    13    1
     4    13    14   ar
     5    14    15   ar
     6    15    16   ar
     7    16    17   ar
     8    17    18   ar
     9    18    19    1
    10    19    20    1
    11    20    21    1
    12    21     1    1
    13     1     2    2
    14     2     3    1
    15     3     4    2
    16     4     5    1
    17     5    23    1
    18    23    24    2
    19    24    25    1
    20    25    26   ar
    21    26    27   ar
    22    27    28   ar
    23    28    31    1
    24    31    32    1
    25    32    33    1
    26    33    34    1
    27    34    35    1
    28    35    36    1
    29    35    37    1
    30    28    29   ar
    31    29    30   ar
    32     5     6    2
    33     6     7    1
    34     7     8    2
    35     8     9    1
    36    19    11    1
    37     9     1    1
    38    18    13   ar
    39    21    19    1
    40     8     4    1
    41    30    25   ar
    42    37    32    1
    43    12    22    1
@<TRIPOS>MOLECULE
*****
 37 43 0 0 0
SMALL
GASTEIGER

@<TRIPOS>ATOM
      1 C          62.0475   87.5473   11.1962 C.2     1  UNL1       -0.0378
      2 C          62.5051   88.7857   10.4840 C.2     1  UNL1       -0.0080
      3 C          61.7445   89.2908    9.2939 C.2     1  UNL1        0.0022
      4 C          60.5263   88.5576    8.8160 C.2     1  UNL1        0.0350
      5 C          59.5811   88.8150    7.6801 C.2     1  UNL1        0.1040
      6 N          58.5393   87.7358    7.6902 N.2     1  UNL1       -0.1483
      7 N          58.8407   86.8114    8.8325 N.2     1  UNL1       -0.1520
      8 C          60.0687   87.3193    9.5282 C.2     1  UNL1        0.0860
      9 C          60.8294   86.8142   10.7183 C.3     1  UNL1        0.0697
     10 O          64.6937   85.9426   15.4971 O.2     1  UNL1       -0.2744
     11 C          64.3922   85.3264   14.1632 C.2     1  UNL1        0.2293
     12 N          64.8235   83.9654   13.7030 N.am    1  UNL1       -0.2839
     13 C          64.3044   83.7607   12.3107 C.ar    1  UNL1        0.0467
     14 C          64.4194   82.6098   11.3557 C.ar    1  UNL1        0.0144
     15 C          63.7823   82.6933   10.0003 C.ar    1  UNL1        0.0013
     16 C          63.0301   83.9278    9.6000 C.ar    1  UNL1       -0.0002
     17 C          62.9151   85.0788   10.5549 C.ar    1  UNL1       -0.0026
     18 C          63.5523   84.9952   11.9103 C.ar    1  UNL1       -0.0008
     19 C          63.6066   85.9628   13.0552 C.3     1  UNL1        0.0927
     20 C          63.3273   87.2468   13.7786 C.3     1  UNL1        0.0179
     21 C          62.8082   87.0422   12.3863 C.3     1  UNL1        0.0315
     22 H          65.3542   83.3198   14.2235 H       1  UNL1        0.1549
     23 C          59.6633   89.9520    6.7052 C.2     1  UNL1        0.0209
     24 C          60.6279   89.8884    5.5583 C.2     1  UNL1        0.0016
     25 C          60.7101   91.0254    4.5834 C.ar    1  UNL1        0.0000
     26 C          61.9620   91.2404    3.7856 C.ar    1  UNL1       -0.0003
     27 C          62.0441   92.3774    2.8106 C.ar    1  UNL1       -0.0029
     28 C          60.8743   93.2995    2.6335 C.ar    1  UNL1       -0.0061
     29 C          59.6223   93.0845    3.4313 C.ar    1  UNL1       -0.0029
     30 C          59.5402   91.9475    4.4063 C.ar    1  UNL1       -0.0003
     31 C          60.9565   94.4365    1.6586 C.3     1  UNL1        0.0992
     32 N          61.7725   94.2946    0.4080 N.3     1  UNL1       -0.2665
     33 C          63.1261   94.8938    0.1658 C.3     1  UNL1        0.0753
     34 C          63.5684   94.4982   -1.2118 C.3     1  UNL1        0.0540
     35 C          62.4881   93.6544   -1.8210 C.3     1  UNL1        0.1782
     36 F          62.5134   93.0437   -3.1908 F       1  UNL1       -0.2357
     37 C          61.3782   93.5286   -0.8199 C.3     1  UNL1        0.1080
@<TRIPOS>BOND
     1    10    11    2
     2    11    12   am
     3    12    13    1
     4    13    14   ar
     5    14    15   ar
     6    15    16   ar
     7    16    17   ar
     8    17    18   ar
     9    18    19    1
    10    19    20    1
    11    20    21    1
    12    21     1    1
    13     1     2    2
    14     2     3    1
    15     3     4    2
    16     4     5    1
    17     5    23    1
    18    23    24    2
    19    24    25    1
    20    25    26   ar
    21    26    27   ar
    22    27    28   ar
    23    28    31    1
    24    31    32    1
    25    32    33    1
    26    33    34    1
    27    34    35    1
    28    35    36    1
    29    35    37    1
    30    28    29   ar
    31    29    30   ar
    32     5     6    2
    33     6     7    1
    34     7     8    2
    35     8     9    1
    36    19    11    1
    37     9     1    1
    38    18    13   ar
    39    21    19    1
    40     8     4    1
    41    30    25   ar
    42    37    32    1
    43    12    22    1
@<TRIPOS>MOLECULE
*****
 37 43 0 0 0
SMALL
GASTEIGER

@<TRIPOS>ATOM
      1 C          62.0751   85.2747   10.7425 C.2     1  UNL1       -0.0378
      2 C          62.6449   85.6370    9.4030 C.2     1  UNL1       -0.0080
      3 C          62.1907   86.8861    8.7078 C.2     1  UNL1        0.0022
      4 C          61.1668   87.7730    9.3521 C.2     1  UNL1        0.0350
      5 C          60.5314   89.0579    8.9103 C.2     1  UNL1        0.1040
      6 N          59.5688   89.4897    9.9766 N.2     1  UNL1       -0.1483
      7 N          59.6095   88.4717   11.0775 N.2     1  UNL1       -0.1520
      8 C          60.5971   87.4108   10.6916 C.2     1  UNL1        0.0860
      9 C          61.0513   86.1615   11.3868 C.3     1  UNL1        0.0697
     10 O          63.5916   80.7504   13.0460 O.2     1  UNL1       -0.2744
     11 C          63.7515   82.2026   13.3856 C.2     1  UNL1        0.2293
     12 N          64.4563   82.7542   14.5893 N.am    1  UNL1       -0.2839
     13 C          64.3751   84.2508   14.5288 C.ar    1  UNL1        0.0467
     14 C          64.8911   85.3218   15.4435 C.ar    1  UNL1        0.0144
     15 C          64.6520   86.7662   15.1170 C.ar    1  UNL1        0.0013
     16 C          63.8969   87.1395   13.8758 C.ar    1  UNL1       -0.0002
     17 C          63.3809   86.0685   12.9612 C.ar    1  UNL1       -0.0026
     18 C          63.6200   84.6242   13.2876 C.ar    1  UNL1       -0.0008
     19 C          63.2346   83.3583   12.5811 C.3     1  UNL1        0.0927
     20 C          62.6106   82.5289   11.4982 C.3     1  UNL1        0.0179
     21 C          62.5293   84.0254   11.4377 C.3     1  UNL1        0.0315
     22 H          64.8952   82.2266   15.2952 H       1  UNL1        0.1549
     23 C          60.8095   89.7835    7.6273 C.2     1  UNL1        0.0209
     24 C          59.6741   90.2015    6.7406 C.2     1  UNL1        0.0016
     25 C          59.9523   90.9271    5.4576 C.ar    1  UNL1        0.0000
     26 C          58.8628   91.7111    4.7880 C.ar    1  UNL1       -0.0003
     27 C          59.1410   92.4368    3.5050 C.ar    1  UNL1       -0.0029
     28 C          60.5086   92.3785    2.8916 C.ar    1  UNL1       -0.0061
     29 C          61.5981   91.5945    3.5613 C.ar    1  UNL1       -0.0029
     30 C          61.3200   90.8688    4.8443 C.ar    1  UNL1       -0.0003
     31 C          60.7867   93.1042    1.6086 C.3     1  UNL1        0.0992
     32 N          59.7048   93.2505    0.5801 N.3     1  UNL1       -0.2665
     33 C          59.2112   92.1733   -0.3397 C.3     1  UNL1        0.0753
     34 C          58.1279   92.7566   -1.1976 C.3     1  UNL1        0.0540
     35 C          57.9520   94.1945   -0.8081 C.3     1  UNL1        0.1782
     36 F          56.9733   95.1580   -1.4113 F       1  UNL1       -0.2357
     37 C          58.9266   94.4997    0.2906 C.3     1  UNL1        0.1080
@<TRIPOS>BOND
     1    10    11    2
     2    11    12   am
     3    12    13    1
     4    13    14   ar
     5    14    15   ar
     6    15    16   ar
     7    16    17   ar
     8    17    18   ar
     9    18    19    1
    10    19    20    1
    11    20    21    1
    12    21     1    1
    13     1     2    2
    14     2     3    1
    15     3     4    2
    16     4     5    1
    17     5    23    1
    18    23    24    2
    19    24    25    1
    20    25    26   ar
    21    26    27   ar
    22    27    28   ar
    23    28    31    1
    24    31    32    1
    25    32    33    1
    26    33    34    1
    27    34    35    1
    28    35    36    1
    29    35    37    1
    30    28    29   ar
    31    29    30   ar
    32     5     6    2
    33     6     7    1
    34     7     8    2
    35     8     9    1
    36    19    11    1
    37     9     1    1
    38    18    13   ar
    39    21    19    1
    40     8     4    1
    41    30    25   ar
    42    37    32    1
    43    12    22    1
@<TRIPOS>MOLECULE
*****
 37 43 0 0 0
SMALL
GASTEIGER

@<TRIPOS>ATOM
      1 C          61.8904   87.0510   10.7026 C.2     1  UNL1       -0.0378
      2 C          62.4674   88.2673   10.0408 C.2     1  UNL1       -0.0080
      3 C          61.7202   88.9415    8.9285 C.2     1  UNL1        0.0022
      4 C          60.3961   88.3994    8.4780 C.2     1  UNL1        0.0350
      5 C          59.4371   88.8478    7.4154 C.2     1  UNL1        0.1040
      6 N          58.2674   87.9087    7.4204 N.2     1  UNL1       -0.1483
      7 N          58.5036   86.8799    8.4862 N.2     1  UNL1       -0.1520
      8 C          59.8192   87.1832    9.1398 C.2     1  UNL1        0.0860
      9 C          60.5664   86.5090   10.2521 C.3     1  UNL1        0.0697
     10 O          64.4771   84.4855   14.5501 O.2     1  UNL1       -0.2744
     11 C          64.2488   85.9324   14.2268 C.2     1  UNL1        0.2293
     12 N          64.7618   87.1029   15.0122 N.am    1  UNL1       -0.2839
     13 C          64.2976   88.3567   14.3323 C.ar    1  UNL1        0.0467
     14 C          64.4999   89.8075   14.6552 C.ar    1  UNL1        0.0144
     15 C          63.9023   90.8627   13.7724 C.ar    1  UNL1        0.0013
     16 C          63.1023   90.4672   12.5668 C.ar    1  UNL1       -0.0002
     17 C          62.9000   89.0164   12.2438 C.ar    1  UNL1       -0.0026
     18 C          63.4976   87.9612   13.1266 C.ar    1  UNL1       -0.0008
     19 C          63.4675   86.4629   13.0615 C.3     1  UNL1        0.0927
     20 C          63.1019   85.1230   12.4949 C.3     1  UNL1        0.0179
     21 C          62.6376   86.3768   11.8150 C.3     1  UNL1        0.0315
     22 H          65.3074   87.0563   15.8304 H       1  UNL1        0.1549
     23 C          59.6163   90.0281    6.5072 C.2     1  UNL1        0.0209
     24 C          60.5310   89.9307    5.3224 C.2     1  UNL1        0.0016
     25 C          60.7102   91.1110    4.4142 C.ar    1  UNL1        0.0000
     26 C          59.6057   92.1144    4.2615 C.ar    1  UNL1       -0.0003
     27 C          59.7849   93.2947    3.3533 C.ar    1  UNL1       -0.0029
     28 C          61.0685   93.4716    2.5977 C.ar    1  UNL1       -0.0061
     29 C          62.1731   92.4682    2.7504 C.ar    1  UNL1       -0.0029
     30 C          61.9939   91.2879    3.6586 C.ar    1  UNL1       -0.0003
     31 C          61.2477   94.6519    1.6895 C.3     1  UNL1        0.0992
     32 N          62.4367   94.7230    0.7779 N.3     1  UNL1       -0.2665
     33 C          62.5697   94.0427   -0.5523 C.3     1  UNL1        0.0753
     34 C          63.9167   94.3861   -1.1160 C.3     1  UNL1        0.0540
     35 C          64.6162   95.2787   -0.1341 C.3     1  UNL1        0.1782
     36 F          65.9892   95.8608   -0.2946 F       1  UNL1       -0.2357
     37 C          63.7015   95.4869    1.0363 C.3     1  UNL1        0.1080
@<TRIPOS>BOND
     1    10    11    2
     2    11    12   am
     3    12    13    1
     4    13    14   ar
     5    14    15   ar
     6    15    16   ar
     7    16    17   ar
     8    17    18   ar
     9    18    19    1
    10    19    20    1
    11    20    21    1
    12    21     1    1
    13     1     2    2
    14     2     3    1
    15     3     4    2
    16     4     5    1
    17     5    23    1
    18    23    24    2
    19    24    25    1
    20    25    26   ar
    21    26    27   ar
    22    27    28   ar
    23    28    31    1
    24    31    32    1
    25    32    33    1
    26    33    34    1
    27    34    35    1
    28    35    36    1
    29    35    37    1
    30    28    29   ar
    31    29    30   ar
    32     5     6    2
    33     6     7    1
    34     7     8    2
    35     8     9    1
    36    19    11    1
    37     9     1    1
    38    18    13   ar
    39    21    19    1
    40     8     4    1
    41    30    25   ar
    42    37    32    1
    43    12    22    1
@<TRIPOS>MOLECULE
*****
 37 43 0 0 0
SMALL
GASTEIGER

@<TRIPOS>ATOM
      1 C          61.7606   87.1487   11.1329 C.2     1  UNL1       -0.0378
      2 C          62.4079   88.3461   10.5025 C.2     1  UNL1       -0.0080
      3 C          61.7694   89.0067    9.3168 C.2     1  UNL1        0.0022
      4 C          60.4835   88.4698    8.7615 C.2     1  UNL1        0.0350
      5 C          59.6269   88.9078    7.6107 C.2     1  UNL1        0.1040
      6 N          58.4501   87.9811    7.5297 N.2     1  UNL1       -0.1483
      7 N          58.5796   86.9704    8.6306 N.2     1  UNL1       -0.1520
      8 C          59.8362   87.2725    9.3917 C.2     1  UNL1        0.0860
      9 C          60.4748   86.6119   10.5775 C.3     1  UNL1        0.0697
     10 O          63.9439   84.9695   15.4409 O.2     1  UNL1       -0.2744
     11 C          63.8951   84.5954   13.9891 C.2     1  UNL1        0.2293
     12 N          64.5259   83.3839   13.3691 N.am    1  UNL1       -0.2839
     13 C          64.2275   83.4069   11.8992 C.ar    1  UNL1        0.0467
     14 C          64.5928   82.4701   10.7862 C.ar    1  UNL1        0.0144
     15 C          64.1429   82.7589    9.3847 C.ar    1  UNL1        0.0013
     16 C          63.3276   83.9846    9.0964 C.ar    1  UNL1       -0.0002
     17 C          62.9623   84.9214   10.2094 C.ar    1  UNL1       -0.0026
     18 C          63.4122   84.6325   11.6108 C.ar    1  UNL1       -0.0008
     19 C          63.2068   85.3670   12.9025 C.3     1  UNL1        0.0927
     20 C          62.6976   86.4651   13.7884 C.3     1  UNL1        0.0179
     21 C          62.3992   86.4881   12.3186 C.3     1  UNL1        0.0315
     22 H          65.0447   82.6948   13.8435 H       1  UNL1        0.1549
     23 C          59.8992   90.0687    6.7006 C.2     1  UNL1        0.0209
     24 C          60.4610   89.8316    5.3301 C.2     1  UNL1        0.0016
     25 C          60.7332   90.9925    4.4200 C.ar    1  UNL1        0.0000
     26 C          62.0895   91.1582    3.8010 C.ar    1  UNL1       -0.0003
     27 C          62.3617   92.3191    2.8909 C.ar    1  UNL1       -0.0029
     28 C          61.2778   93.3142    2.5998 C.ar    1  UNL1       -0.0061
     29 C          59.9215   93.1485    3.2188 C.ar    1  UNL1       -0.0029
     30 C          59.6492   91.9876    4.1289 C.ar    1  UNL1       -0.0003
     31 C          61.5501   94.4751    1.6897 C.3     1  UNL1        0.0992
     32 N          60.8599   94.5643    0.3610 N.3     1  UNL1       -0.2665
     33 C          59.9084   95.6417   -0.0677 C.3     1  UNL1        0.0753
     34 C          59.4604   95.3351   -1.4661 C.3     1  UNL1        0.0540
     35 C          60.1351   94.0681   -1.9016 C.3     1  UNL1        0.1782
     36 F          59.9732   93.3956   -3.2326 F       1  UNL1       -0.2357
     37 C          61.0000   93.5917   -0.7724 C.3     1  UNL1        0.1080
@<TRIPOS>BOND
     1    10    11    2
     2    11    12   am
     3    12    13    1
     4    13    14   ar
     5    14    15   ar
     6    15    16   ar
     7    16    17   ar
     8    17    18   ar
     9    18    19    1
    10    19    20    1
    11    20    21    1
    12    21     1    1
    13     1     2    2
    14     2     3    1
    15     3     4    2
    16     4     5    1
    17     5    23    1
    18    23    24    2
    19    24    25    1
    20    25    26   ar
    21    26    27   ar
    22    27    28   ar
    23    28    31    1
    24    31    32    1
    25    32    33    1
    26    33    34    1
    27    34    35    1
    28    35    36    1
    29    35    37    1
    30    28    29   ar
    31    29    30   ar
    32     5     6    2
    33     6     7    1
    34     7     8    2
    35     8     9    1
    36    19    11    1
    37     9     1    1
    38    18    13   ar
    39    21    19    1
    40     8     4    1
    41    30    25   ar
    42    37    32    1
    43    12    22    1
@<TRIPOS>MOLECULE
*****
 37 43 0 0 0
SMALL
GASTEIGER

@<TRIPOS>ATOM
      1 C          73.2634   72.8354   15.6685 C.2     1  UNL1       -0.0378
      2 C          73.2810   73.3434   14.2572 C.2     1  UNL1       -0.0080
      3 C          73.3852   74.8159   13.9913 C.2     1  UNL1        0.0022
      4 C          73.4720   75.7805   15.1369 C.2     1  UNL1        0.0350
      5 C          73.5822   77.2757   15.1837 C.2     1  UNL1        0.1040
      6 N          73.6329   77.6918   16.6240 N.2     1  UNL1       -0.1483
      7 N          73.5539   76.4537   17.4672 N.2     1  UNL1       -0.1520
      8 C          73.4544   75.2725   16.5481 C.2     1  UNL1        0.0860
      9 C          73.3502   73.7999   16.8139 C.3     1  UNL1        0.0697
     10 O          73.0464   67.6526   16.7489 O.2     1  UNL1       -0.2744
     11 C          72.3071   68.5576   15.8084 C.2     1  UNL1        0.2293
     12 N          71.2205   68.1457   14.8599 N.am    1  UNL1       -0.2839
     13 C          70.7664   69.3669   14.1166 C.ar    1  UNL1        0.0467
     14 C          69.7232   69.5672   13.0576 C.ar    1  UNL1        0.0144
     15 C          69.4859   70.9343   12.4878 C.ar    1  UNL1        0.0013
     16 C          70.2919   72.1010   12.9769 C.ar    1  UNL1       -0.0002
     17 C          71.3351   71.9006   14.0359 C.ar    1  UNL1       -0.0026
     18 C          71.5724   70.5336   14.6058 C.ar    1  UNL1       -0.0008
     19 C          72.5245   70.0334   15.6513 C.3     1  UNL1        0.0927
     20 C          73.6132   70.1416   16.6775 C.3     1  UNL1        0.0179
     21 C          73.1592   71.3627   15.9343 C.3     1  UNL1        0.0315
     22 H          70.8674   67.2338   14.7454 H       1  UNL1        0.1549
     23 C          73.6330   78.1936   13.9985 C.2     1  UNL1        0.0209
     24 C          72.5037   78.2071   13.0114 C.2     1  UNL1        0.0016
     25 C          72.5544   79.1250   11.8261 C.ar    1  UNL1        0.0000
     26 C          72.2031   80.5746   11.9846 C.ar    1  UNL1       -0.0003
     27 C          72.2538   81.4926   10.7993 C.ar    1  UNL1       -0.0029
     28 C          72.6559   80.9609    9.4556 C.ar    1  UNL1       -0.0061
     29 C          73.0073   79.5112    9.2971 C.ar    1  UNL1       -0.0029
     30 C          72.9566   78.5933   10.4823 C.ar    1  UNL1       -0.0003
     31 C          72.7067   81.8789    8.2703 C.3     1  UNL1        0.0992
     32 N          72.1471   81.4331    6.9520 N.3     1  UNL1       -0.2665
     33 C          72.7438   81.7064    5.6032 C.3     1  UNL1        0.0753
     34 C          71.8581   81.0779    4.5685 C.3     1  UNL1        0.0540
     35 C          70.7140   80.4161    5.2779 C.3     1  UNL1        0.1782
     36 F          69.5888   79.6665    4.6283 F       1  UNL1       -0.2357
     37 C          70.8926   80.6357    6.7510 C.3     1  UNL1        0.1080
@<TRIPOS>BOND
     1    10    11    2
     2    11    12   am
     3    12    13    1
     4    13    14   ar
     5    14    15   ar
     6    15    16   ar
     7    16    17   ar
     8    17    18   ar
     9    18    19    1
    10    19    20    1
    11    20    21    1
    12    21     1    1
    13     1     2    2
    14     2     3    1
    15     3     4    2
    16     4     5    1
    17     5    23    1
    18    23    24    2
    19    24    25    1
    20    25    26   ar
    21    26    27   ar
    22    27    28   ar
    23    28    31    1
    24    31    32    1
    25    32    33    1
    26    33    34    1
    27    34    35    1
    28    35    36    1
    29    35    37    1
    30    28    29   ar
    31    29    30   ar
    32     5     6    2
    33     6     7    1
    34     7     8    2
    35     8     9    1
    36    19    11    1
    37     9     1    1
    38    18    13   ar
    39    21    19    1
    40     8     4    1
    41    30    25   ar
    42    37    32    1
    43    12    22    1
