@<TRIPOS>MOLECULE
*****
 30 33 0 0 0
SMALL
GASTEIGER

@<TRIPOS>ATOM
      1 C          59.7923   90.3005   11.3671 C.3     1  UNL1        0.0493
      2 C          60.2547   88.9882   10.8069 C.2     1  UNL1        0.0588
      3 N          60.5080   87.7349   11.5912 N.2     1  UNL1       -0.2525
      4 C          60.9548   86.6709   10.6331 C.2     1  UNL1        0.0748
      5 C          60.9778   87.2665    9.2566 C.2     1  UNL1       -0.0034
      6 C          61.3654   86.5549    7.9944 C.3     1  UNL1        0.0300
      7 C          60.5451   88.6987    9.3640 C.3     1  UNL1        0.1281
      8 C          61.3155   85.2589   10.9890 C.2     1  UNL1        0.0231
      9 C          62.3849   84.9917   12.0063 C.2     1  UNL1        0.0564
     10 C          63.1760   86.0287   12.7470 C.2     1  UNL1        0.2496
     11 O          63.0367   87.5150   12.6005 O.2     1  UNL1       -0.2698
     12 N          64.1309   85.3184   13.6601 N.am    1  UNL1       -0.2804
     13 C          63.9299   83.8424   13.4836 C.ar    1  UNL1        0.0508
     14 C          64.5901   82.6562   14.1216 C.ar    1  UNL1        0.0170
     15 C          64.1712   81.2681   13.7375 C.ar    1  UNL1        0.0309
     16 C          63.0920   81.0662   12.7154 C.ar    1  UNL1        0.1402
     17 F          62.6730   79.6780   12.3313 F       1  UNL1       -0.2042
     18 C          62.4318   82.2524   12.0774 C.ar    1  UNL1        0.0310
     19 C          62.8508   83.6405   12.4616 C.ar    1  UNL1        0.0201
     20 H          64.7763   85.7459   14.2683 H       1  UNL1        0.1552
     21 N          60.4240   89.6708    8.2281 N.am    1  UNL1       -0.2968
     22 C          59.3916   89.4533    7.1618 C.2     1  UNL1        0.2372
     23 O          58.4803   88.2639    7.2314 O.2     1  UNL1       -0.2736
     24 H          61.0221   90.4514    8.1823 H       1  UNL1        0.1500
     25 C          59.2705   90.4253    6.0258 C.3     1  UNL1        0.1315
     26 C          57.9898   90.9374    5.4363 C.3     1  UNL1        0.0265
     27 C          58.3367   91.8845    4.3260 C.3     1  UNL1        0.0190
     28 C          59.8317   91.9578    4.2293 C.3     1  UNL1        0.0689
     29 N          60.4089   91.0560    5.2798 N.3     1  UNL1       -0.2913
     30 H          60.9858   91.5984    5.9228 H       1  UNL1        0.1236
@<TRIPOS>BOND
     1     1     2    1
     2     2     3    2
     3     3     4    1
     4     4     8    1
     5     8     9    2
     6     9    10    1
     7    10    11    2
     8    10    12   am
     9    12    13    1
    10    13    14   ar
    11    14    15   ar
    12    15    16   ar
    13    16    17    1
    14    16    18   ar
    15    18    19   ar
    16     4     5    2
    17     5     6    1
    18     5     7    1
    19     7    21    1
    20    21    22   am
    21    22    23    2
    22    25    22    1
    23    25    26    1
    24    26    27    1
    25    27    28    1
    26    28    29    1
    27     7     2    1
    28    29    25    1
    29    19     9    1
    30    19    13   ar
    31    12    20    1
    32    21    24    1
    33    29    30    1
@<TRIPOS>MOLECULE
*****
 30 33 0 0 0
SMALL
GASTEIGER

@<TRIPOS>ATOM
      1 C          63.4151   89.8078   16.3724 C.3     1  UNL1        0.0493
      2 C          63.3944   90.0199   14.8876 C.2     1  UNL1        0.0588
      3 N          62.2481   89.7154   13.9694 N.2     1  UNL1       -0.2525
      4 C          62.6617   90.0811   12.5747 C.2     1  UNL1        0.0748
      5 C          64.0635   90.6117   12.6310 C.2     1  UNL1       -0.0034
      6 C          64.8708   91.0953   11.4629 C.3     1  UNL1        0.0300
      7 C          64.5164   90.5739   14.0605 C.3     1  UNL1        0.1281
      8 C          61.8209   89.9409   11.3403 C.2     1  UNL1        0.0231
      9 C          61.6011   88.5873   10.7324 C.2     1  UNL1        0.0564
     10 C          62.1546   87.2905   11.2442 C.2     1  UNL1        0.2496
     11 O          63.0251   87.1196   12.4537 O.2     1  UNL1       -0.2698
     12 N          61.6848   86.1947   10.3340 N.am    1  UNL1       -0.2804
     13 C          60.8409   86.8142    9.2597 C.ar    1  UNL1        0.0508
     14 C          60.1128   86.2229    8.0892 C.ar    1  UNL1        0.0170
     15 C          59.3331   87.1103    7.1648 C.ar    1  UNL1        0.0309
     16 C          59.2814   88.5891    7.4111 C.ar    1  UNL1        0.1402
     17 F          58.5016   89.4765    6.4866 F       1  UNL1       -0.2042
     18 C          60.0094   89.1804    8.5816 C.ar    1  UNL1        0.0310
     19 C          60.7891   88.2930    9.5060 C.ar    1  UNL1        0.0201
     20 H          61.8936   85.2370   10.4256 H       1  UNL1        0.1552
     21 N          65.8560   91.0130   14.5729 N.am    1  UNL1       -0.2968
     22 C          66.3259   92.4177   14.3361 C.2     1  UNL1        0.2372
     23 O          65.4563   93.3833   13.5869 O.2     1  UNL1       -0.2736
     24 H          66.4269   90.3793   15.0646 H       1  UNL1        0.1500
     25 C          67.6656   92.8568   14.8485 C.3     1  UNL1        0.1315
     26 C          67.9072   93.8388   15.9564 C.3     1  UNL1        0.0265
     27 C          69.3898   93.9798   16.1355 C.3     1  UNL1        0.0190
     28 C          70.0644   93.0851   15.1384 C.3     1  UNL1        0.0689
     29 N          68.9988   92.3910   14.3430 N.3     1  UNL1       -0.2913
     30 H          69.0805   91.3813   14.4619 H       1  UNL1        0.1236
@<TRIPOS>BOND
     1     1     2    1
     2     2     3    2
     3     3     4    1
     4     4     8    1
     5     8     9    2
     6     9    10    1
     7    10    11    2
     8    10    12   am
     9    12    13    1
    10    13    14   ar
    11    14    15   ar
    12    15    16   ar
    13    16    17    1
    14    16    18   ar
    15    18    19   ar
    16     4     5    2
    17     5     6    1
    18     5     7    1
    19     7    21    1
    20    21    22   am
    21    22    23    2
    22    25    22    1
    23    25    26    1
    24    26    27    1
    25    27    28    1
    26    28    29    1
    27     7     2    1
    28    29    25    1
    29    19     9    1
    30    19    13   ar
    31    12    20    1
    32    21    24    1
    33    29    30    1
@<TRIPOS>MOLECULE
*****
 30 33 0 0 0
SMALL
GASTEIGER

@<TRIPOS>ATOM
      1 C          62.8504   91.0749   10.0403 C.3     1  UNL1        0.0493
      2 C          62.1813   89.7433   10.2104 C.2     1  UNL1        0.0588
      3 N          62.6402   88.6345   11.1103 N.2     1  UNL1       -0.2525
      4 C          61.6783   87.4926   10.9665 C.2     1  UNL1        0.0748
      5 C          60.6247   87.8957    9.9778 C.2     1  UNL1       -0.0034
      6 C          59.4642   87.0554    9.5342 C.3     1  UNL1        0.0300
      7 C          60.9356   89.2868    9.5105 C.3     1  UNL1        0.1281
      8 C          61.7561   86.1783   11.6853 C.2     1  UNL1        0.0231
      9 C          62.4180   85.0028   11.0294 C.2     1  UNL1        0.0564
     10 C          63.0434   84.9906    9.6660 C.2     1  UNL1        0.2496
     11 O          63.1168   86.1517    8.7192 O.2     1  UNL1       -0.2698
     12 N          63.5826   83.6134    9.4158 N.am    1  UNL1       -0.2804
     13 C          63.2904   82.7745   10.6244 C.ar    1  UNL1        0.0508
     14 C          63.5867   81.3396   10.9457 C.ar    1  UNL1        0.0170
     15 C          63.1633   80.7634   12.2643 C.ar    1  UNL1        0.0309
     16 C          62.4435   81.6221   13.2616 C.ar    1  UNL1        0.1402
     17 F          62.0201   81.0459   14.5802 F       1  UNL1       -0.2042
     18 C          62.1472   83.0570   12.9403 C.ar    1  UNL1        0.0310
     19 C          62.5706   83.6332   11.6217 C.ar    1  UNL1        0.0201
     20 H          64.0468   83.3129    8.6013 H       1  UNL1        0.1552
     21 N          60.1405   90.0817    8.5176 N.am    1  UNL1       -0.2968
     22 C          59.7127   89.4536    7.2243 C.2     1  UNL1        0.2372
     23 O          60.0800   88.0306    6.9240 O.2     1  UNL1       -0.2736
     24 H          59.8994   91.0157    8.7147 H       1  UNL1        0.1500
     25 C          58.9175   90.2485    6.2314 C.3     1  UNL1        0.1315
     26 C          59.4760   91.1903    5.2062 C.3     1  UNL1        0.0265
     27 C          58.3279   91.7650    4.4306 C.3     1  UNL1        0.0190
     28 C          57.0599   91.1784    4.9765 C.3     1  UNL1        0.0689
     29 N          57.4243   90.2412    6.0895 N.3     1  UNL1       -0.2913
     30 H          57.1022   89.2991    5.8680 H       1  UNL1        0.1236
@<TRIPOS>BOND
     1     1     2    1
     2     2     3    2
     3     3     4    1
     4     4     8    1
     5     8     9    2
     6     9    10    1
     7    10    11    2
     8    10    12   am
     9    12    13    1
    10    13    14   ar
    11    14    15   ar
    12    15    16   ar
    13    16    17    1
    14    16    18   ar
    15    18    19   ar
    16     4     5    2
    17     5     6    1
    18     5     7    1
    19     7    21    1
    20    21    22   am
    21    22    23    2
    22    25    22    1
    23    25    26    1
    24    26    27    1
    25    27    28    1
    26    28    29    1
    27     7     2    1
    28    29    25    1
    29    19     9    1
    30    19    13   ar
    31    12    20    1
    32    21    24    1
    33    29    30    1
@<TRIPOS>MOLECULE
*****
 30 33 0 0 0
SMALL
GASTEIGER

@<TRIPOS>ATOM
      1 C          60.8998   86.6288   10.7941 C.3     1  UNL1        0.0493
      2 C          61.9971   86.9344   11.7700 C.2     1  UNL1        0.0588
      3 N          62.4887   88.3011   12.1444 N.2     1  UNL1       -0.2525
      4 C          63.5909   88.1383   13.1487 C.2     1  UNL1        0.0748
      5 C          63.7806   86.6708   13.3948 C.2     1  UNL1       -0.0034
      6 C          64.7799   86.0555   14.3290 C.3     1  UNL1        0.0300
      7 C          62.7956   85.9268   12.5427 C.3     1  UNL1        0.1281
      8 C          64.3672   89.2481   13.7936 C.2     1  UNL1        0.0231
      9 C          64.6370   90.5138   13.0352 C.2     1  UNL1        0.0564
     10 C          64.1963   90.8123   11.6328 C.2     1  UNL1        0.2496
     11 O          63.4085   89.8975   10.7425 O.2     1  UNL1       -0.2698
     12 N          64.6817   92.1863   11.2769 N.am    1  UNL1       -0.2804
     13 C          65.4223   92.7369   12.4594 C.ar    1  UNL1        0.0508
     14 C          66.1184   94.0460   12.6870 C.ar    1  UNL1        0.0170
     15 C          66.7867   94.3214   14.0013 C.ar    1  UNL1        0.0309
     16 C          66.7591   93.2878   15.0879 C.ar    1  UNL1        0.1402
     17 F          67.4275   93.5633   16.4023 F       1  UNL1       -0.2042
     18 C          66.0631   91.9787   14.8603 C.ar    1  UNL1        0.0310
     19 C          65.3947   91.7033   13.5461 C.ar    1  UNL1        0.0201
     20 H          64.5392   92.6459   10.4181 H       1  UNL1        0.1552
     21 N          62.6368   84.4367   12.4752 N.am    1  UNL1       -0.2968
     22 C          62.2587   83.6663   13.7055 C.2     1  UNL1        0.2372
     23 O          62.0392   84.3859   15.0032 O.2     1  UNL1       -0.2736
     24 H          62.7809   83.9644   11.6235 H       1  UNL1        0.1500
     25 C          62.1000   82.1763   13.6381 C.3     1  UNL1        0.1315
     26 C          62.8448   81.2508   12.7222 C.3     1  UNL1        0.0265
     27 C          62.3737   79.8527   12.9927 C.3     1  UNL1        0.0190
     28 C          61.3377   79.9140   14.0757 C.3     1  UNL1        0.0689
     29 N          61.1685   81.3500   14.4745 N.3     1  UNL1       -0.2913
     30 H          61.3967   81.4642   15.4621 H       1  UNL1        0.1236
@<TRIPOS>BOND
     1     1     2    1
     2     2     3    2
     3     3     4    1
     4     4     8    1
     5     8     9    2
     6     9    10    1
     7    10    11    2
     8    10    12   am
     9    12    13    1
    10    13    14   ar
    11    14    15   ar
    12    15    16   ar
    13    16    17    1
    14    16    18   ar
    15    18    19   ar
    16     4     5    2
    17     5     6    1
    18     5     7    1
    19     7    21    1
    20    21    22   am
    21    22    23    2
    22    25    22    1
    23    25    26    1
    24    26    27    1
    25    27    28    1
    26    28    29    1
    27     7     2    1
    28    29    25    1
    29    19     9    1
    30    19    13   ar
    31    12    20    1
    32    21    24    1
    33    29    30    1
@<TRIPOS>MOLECULE
*****
 30 33 0 0 0
SMALL
GASTEIGER

@<TRIPOS>ATOM
      1 C          65.7623   96.5479   -0.3397 C.3     1  UNL1        0.0493
      2 C          64.5586   95.6557   -0.2699 C.2     1  UNL1        0.0588
      3 N          63.6557   95.4843    0.9156 N.2     1  UNL1       -0.2525
      4 C          62.5855   94.5009    0.5448 C.2     1  UNL1        0.0748
      5 C          62.8270   94.0644   -0.8698 C.2     1  UNL1       -0.0034
      6 C          61.9951   93.0860   -1.6448 C.3     1  UNL1        0.0300
      7 C          64.0465   94.7781   -1.3734 C.3     1  UNL1        0.1281
      8 C          61.4697   94.0356    1.4328 C.2     1  UNL1        0.0231
      9 C          61.7052   92.9259    2.4142 C.2     1  UNL1        0.0564
     10 C          62.9959   92.1899    2.6199 C.2     1  UNL1        0.2496
     11 O          64.2778   92.4345    1.8803 O.2     1  UNL1       -0.2698
     12 N          62.7797   91.1665    3.6950 N.am    1  UNL1       -0.2804
     13 C          61.3553   91.2699    4.1537 C.ar    1  UNL1        0.0508
     14 C          60.5773   90.5145    5.1900 C.ar    1  UNL1        0.0170
     15 C          59.1351   90.8464    5.4347 C.ar    1  UNL1        0.0309
     16 C          58.4710   91.9338    4.6431 C.ar    1  UNL1        0.1402
     17 F          57.0287   92.2657    4.8878 F       1  UNL1       -0.2042
     18 C          59.2490   92.6892    3.6068 C.ar    1  UNL1        0.0310
     19 C          60.6912   92.3573    3.3622 C.ar    1  UNL1        0.0201
     20 H          63.4542   90.5374    4.0391 H       1  UNL1        0.1552
     21 N          64.6482   94.6387   -2.7403 N.am    1  UNL1       -0.2968
     22 C          64.3596   95.6656   -3.7950 C.2     1  UNL1        0.2372
     23 O          63.4694   96.8319   -3.4827 O.2     1  UNL1       -0.2736
     24 H          65.2324   93.8733   -2.9453 H       1  UNL1        0.1500
     25 C          64.9613   95.5263   -5.1619 C.3     1  UNL1        0.1315
     26 C          66.1047   96.3290   -5.7080 C.3     1  UNL1        0.0265
     27 C          66.3752   95.8585   -7.1064 C.3     1  UNL1        0.0190
     28 C          65.3991   94.7650   -7.4245 C.3     1  UNL1        0.0689
     29 N          64.5252   94.5596   -6.2228 N.3     1  UNL1       -0.2913
     30 H          64.6247   93.6035   -5.8818 H       1  UNL1        0.1236
@<TRIPOS>BOND
     1     1     2    1
     2     2     3    2
     3     3     4    1
     4     4     8    1
     5     8     9    2
     6     9    10    1
     7    10    11    2
     8    10    12   am
     9    12    13    1
    10    13    14   ar
    11    14    15   ar
    12    15    16   ar
    13    16    17    1
    14    16    18   ar
    15    18    19   ar
    16     4     5    2
    17     5     6    1
    18     5     7    1
    19     7    21    1
    20    21    22   am
    21    22    23    2
    22    25    22    1
    23    25    26    1
    24    26    27    1
    25    27    28    1
    26    28    29    1
    27     7     2    1
    28    29    25    1
    29    19     9    1
    30    19    13   ar
    31    12    20    1
    32    21    24    1
    33    29    30    1
