@<TRIPOS>MOLECULE
*****
 29 32 0 0 0
SMALL
GASTEIGER

@<TRIPOS>ATOM
      1 C          62.5274   89.1433   11.3578 C.3     1  UNL1        0.1319
      2 C          62.5088   89.4090    9.8817 C.3     1  UNL1        0.0270
      3 N          62.2009   86.4926   11.2475 N.ar    1  UNL1       -0.3137
      4 C          62.7401   87.7482   11.8661 C.ar    1  UNL1        0.1363
      5 N          63.5293   87.3637   13.0824 N.ar    1  UNL1       -0.2280
      6 C          63.4778   85.8705   13.2154 C.ar    1  UNL1        0.1174
      7 C          64.0725   84.9315   14.2227 C.ar    1  UNL1        0.1190
      8 N          63.8462   83.4541   14.0959 N.ar    1  UNL1       -0.2465
      9 C          63.0252   82.9158   12.9618 C.ar    1  UNL1        0.0602
     10 C          62.4305   83.8547   11.9545 C.ar    1  UNL1        0.0335
     11 C          62.6568   85.3321   12.0813 C.ar    1  UNL1        0.0814
     12 C          62.7989   81.4383   12.8350 C.3     1  UNL1        0.0403
     13 C          62.8045   80.1899   12.0035 C.3     1  UNL1        0.0063
     14 C          62.4013   80.1278   13.4469 C.3     1  UNL1        0.0063
     15 C          61.9726   86.0161    8.7037 C.3     1  UNL1        0.0265
     16 C          61.3544   86.4117   10.0118 C.3     1  UNL1        0.1073
     17 N          62.3334   90.2728   12.3256 N.3     1  UNL1       -0.1735
     18 H          61.7607   89.9117   13.0885 H       1  UNL1        0.1492
     19 S          63.5237   90.9351   12.9537 S.O2    1  UNL1        0.0621
     20 O          63.9823   91.3937   11.6011 O.2     1  UNL1       -0.1529
     21 O          63.0652   90.4764   14.3062 O.2     1  UNL1       -0.1529
     22 C          64.7141   91.5973   13.5818 C.ar    1  UNL1        0.1411
     23 C          64.9702   91.4417   15.0515 C.ar    1  UNL1        0.0238
     24 C          66.1606   92.1040   15.6796 C.ar    1  UNL1        0.0310
     25 C          67.0947   92.9219   14.8380 C.ar    1  UNL1        0.1492
     26 N          66.8385   93.0776   13.3682 N.ar    1  UNL1       -0.2321
     27 C          65.6482   92.4153   12.7401 C.ar    1  UNL1        0.1195
     28 C          68.2850   93.5842   15.4662 C.1     1  UNL1        0.1198
     29 N          69.4753   94.2465   16.0943 N.1     1  UNL1       -0.1893
@<TRIPOS>BOND
     1    15    16    1
     2    16     3    1
     3     3     4   ar
     4     4     1    1
     5     1     2    1
     6     1    17    1
     7    17    19    1
     8    19    20    2
     9    19    21    2
    10    19    22    1
    11    22    23   ar
    12    23    24   ar
    13    24    25   ar
    14    25    28    1
    15    28    29    3
    16    25    26   ar
    17    26    27   ar
    18     4     5   ar
    19     5     6   ar
    20     6     7   ar
    21     7     8   ar
    22     8     9   ar
    23     9    12    1
    24    12    13    1
    25    13    14    1
    26     9    10   ar
    27    10    11   ar
    28    11     3   ar
    29    27    22   ar
    30    11     6   ar
    31    14    12    1
    32    17    18    1
@<TRIPOS>MOLECULE
*****
 29 32 0 0 0
SMALL
GASTEIGER

@<TRIPOS>ATOM
      1 C          61.4361   90.0031   10.6032 C.3     1  UNL1        0.1319
      2 C          60.0876   90.5716   10.9320 C.3     1  UNL1        0.0270
      3 N          63.2737   90.5795   12.4569 N.ar    1  UNL1       -0.3137
      4 C          62.6783   90.6923   11.0847 C.ar    1  UNL1        0.1363
      5 N          63.5433   91.6154   10.2787 N.ar    1  UNL1       -0.2280
      6 C          64.6732   92.0731   11.1527 C.ar    1  UNL1        0.1174
      7 C          65.8323   92.9901   10.8966 C.ar    1  UNL1        0.1190
      8 N          66.8247   93.2669   11.9867 N.ar    1  UNL1       -0.2465
      9 C          66.6581   92.6266   13.3329 C.ar    1  UNL1        0.0602
     10 C          65.4990   91.7096   13.5890 C.ar    1  UNL1        0.0335
     11 C          64.5066   91.4328   12.4989 C.ar    1  UNL1        0.0814
     12 C          67.6506   92.9034   14.4231 C.3     1  UNL1        0.0403
     13 C          68.0074   93.5782   15.7143 C.3     1  UNL1        0.0063
     14 C          69.0127   92.7080   15.0200 C.3     1  UNL1        0.0063
     15 C          63.6654   88.9688   14.4574 C.3     1  UNL1        0.0265
     16 C          62.7314   89.7576   13.5884 C.3     1  UNL1        0.1073
     17 N          61.5425   88.7453    9.7928 N.3     1  UNL1       -0.1735
     18 H          62.2456   88.9168    9.0740 H       1  UNL1        0.1492
     19 S          61.9105   87.4528   10.4590 S.O2    1  UNL1        0.0621
     20 O          62.8279   87.1260    9.3181 O.2     1  UNL1       -0.1529
     21 O          60.9930   87.7795   11.5998 O.2     1  UNL1       -0.1529
     22 C          62.2785   86.1602   11.1252 C.ar    1  UNL1        0.1411
     23 C          62.7239   84.9906   10.2984 C.ar    1  UNL1        0.0238
     24 C          63.0919   83.6980   10.9646 C.ar    1  UNL1        0.0310
     25 C          63.0145   83.5750   12.4575 C.ar    1  UNL1        0.1492
     26 N          62.5690   84.7447   13.2843 N.ar    1  UNL1       -0.2321
     27 C          62.2010   86.0372   12.6182 C.ar    1  UNL1        0.1195
     28 C          63.3825   82.2824   13.1237 C.1     1  UNL1        0.1198
     29 N          63.7505   80.9898   13.7899 N.1     1  UNL1       -0.1893
@<TRIPOS>BOND
     1    15    16    1
     2    16     3    1
     3     3     4   ar
     4     4     1    1
     5     1     2    1
     6     1    17    1
     7    17    19    1
     8    19    20    2
     9    19    21    2
    10    19    22    1
    11    22    23   ar
    12    23    24   ar
    13    24    25   ar
    14    25    28    1
    15    28    29    3
    16    25    26   ar
    17    26    27   ar
    18     4     5   ar
    19     5     6   ar
    20     6     7   ar
    21     7     8   ar
    22     8     9   ar
    23     9    12    1
    24    12    13    1
    25    13    14    1
    26     9    10   ar
    27    10    11   ar
    28    11     3   ar
    29    27    22   ar
    30    11     6   ar
    31    14    12    1
    32    17    18    1
@<TRIPOS>MOLECULE
*****
 29 32 0 0 0
SMALL
GASTEIGER

@<TRIPOS>ATOM
      1 C          64.5384   90.4027   14.4887 C.3     1  UNL1        0.1319
      2 C          63.7420   90.9192   15.6501 C.3     1  UNL1        0.0270
      3 N          63.2230   89.6986   12.2708 N.ar    1  UNL1       -0.3137
      4 C          63.9360   89.3950   13.5551 C.ar    1  UNL1        0.1363
      5 N          63.9408   87.9067   13.7419 N.ar    1  UNL1       -0.2280
      6 C          63.2308   87.2905   12.5730 C.ar    1  UNL1        0.1174
      7 C          62.9309   85.8640   12.2191 C.ar    1  UNL1        0.1190
      8 N          62.1874   85.5451   10.9561 N.ar    1  UNL1       -0.2465
      9 C          61.7438   86.6526   10.0469 C.ar    1  UNL1        0.0602
     10 C          62.0437   88.0790   10.4007 C.ar    1  UNL1        0.0335
     11 C          62.7872   88.3980   11.6638 C.ar    1  UNL1        0.0814
     12 C          61.0003   86.3336    8.7837 C.3     1  UNL1        0.0403
     13 C          60.9171   85.6089    7.4731 C.3     1  UNL1        0.0063
     14 C          59.7957   86.5057    7.9066 C.3     1  UNL1        0.0063
     15 C          63.4621   91.3845   10.3085 C.3     1  UNL1        0.0265
     16 C          62.9872   91.0633   11.6946 C.3     1  UNL1        0.1073
     17 N          65.9372   90.8940   14.2609 N.3     1  UNL1       -0.1735
     18 H          66.5093   90.0728   14.0640 H       1  UNL1        0.1492
     19 S          66.2153   91.8868   13.1714 S.O2    1  UNL1        0.0621
     20 O          67.5647   91.2691   12.9529 O.2     1  UNL1       -0.1529
     21 O          64.8660   92.5045   13.3898 O.2     1  UNL1       -0.1529
     22 C          66.4935   92.8796   12.0818 C.ar    1  UNL1        0.1411
     23 C          67.1436   92.4312   10.8067 C.ar    1  UNL1        0.0238
     24 C          67.4218   93.4240    9.7171 C.ar    1  UNL1        0.0310
     25 C          67.0497   94.8651    9.9028 C.ar    1  UNL1        0.1492
     26 N          66.3995   95.3136   11.1781 N.ar    1  UNL1       -0.2321
     27 C          66.1214   94.3208   12.2676 C.ar    1  UNL1        0.1195
     28 C          67.3278   95.8579    8.8133 C.1     1  UNL1        0.1198
     29 N          67.6060   96.8507    7.7238 N.1     1  UNL1       -0.1893
@<TRIPOS>BOND
     1    15    16    1
     2    16     3    1
     3     3     4   ar
     4     4     1    1
     5     1     2    1
     6     1    17    1
     7    17    19    1
     8    19    20    2
     9    19    21    2
    10    19    22    1
    11    22    23   ar
    12    23    24   ar
    13    24    25   ar
    14    25    28    1
    15    28    29    3
    16    25    26   ar
    17    26    27   ar
    18     4     5   ar
    19     5     6   ar
    20     6     7   ar
    21     7     8   ar
    22     8     9   ar
    23     9    12    1
    24    12    13    1
    25    13    14    1
    26     9    10   ar
    27    10    11   ar
    28    11     3   ar
    29    27    22   ar
    30    11     6   ar
    31    14    12    1
    32    17    18    1
@<TRIPOS>MOLECULE
*****
 29 32 0 0 0
SMALL
GASTEIGER

@<TRIPOS>ATOM
      1 C          61.7379   89.8058   11.8408 C.3     1  UNL1        0.1319
      2 C          60.5143   90.5453   11.3869 C.3     1  UNL1        0.0270
      3 N          63.6846   90.4840   13.5423 N.ar    1  UNL1       -0.3137
      4 C          62.9738   90.5645   12.2239 C.ar    1  UNL1        0.1363
      5 N          63.7159   91.5371   11.3560 N.ar    1  UNL1       -0.2280
      6 C          64.8853   92.0576   12.1379 C.ar    1  UNL1        0.1174
      7 C          65.9653   93.0402   11.7941 C.ar    1  UNL1        0.1190
      8 N          67.0259   93.3718   12.8015 N.ar    1  UNL1       -0.2465
      9 C          67.0066   92.7209   14.1528 C.ar    1  UNL1        0.0602
     10 C          65.9267   91.7383   14.4966 C.ar    1  UNL1        0.0335
     11 C          64.8660   91.4067   13.4892 C.ar    1  UNL1        0.0814
     12 C          68.0674   93.0525   15.1603 C.3     1  UNL1        0.0403
     13 C          68.7672   94.0571   16.0269 C.3     1  UNL1        0.0063
     14 C          69.2048   92.6224   16.0386 C.3     1  UNL1        0.0063
     15 C          64.1068   88.4318   15.0786 C.3     1  UNL1        0.0265
     16 C          63.2844   89.6304   14.7091 C.3     1  UNL1        0.1073
     17 N          61.7255   88.3075   11.9116 N.3     1  UNL1       -0.1735
     18 H          60.9056   88.0454   12.4588 H       1  UNL1        0.1492
     19 S          61.6811   87.4974   10.6499 S.O2    1  UNL1        0.0621
     20 O          60.9414   86.4114   11.3733 O.2     1  UNL1       -0.1529
     21 O          62.4208   88.5835    9.9265 O.2     1  UNL1       -0.1529
     22 C          61.6367   86.6873    9.3883 C.ar    1  UNL1        0.1411
     23 C          62.8488   85.9233    8.9446 C.ar    1  UNL1        0.0238
     24 C          62.8044   85.1132    7.6829 C.ar    1  UNL1        0.0310
     25 C          61.5479   85.0671    6.8650 C.ar    1  UNL1        0.1492
     26 N          60.3357   85.8311    7.3087 N.ar    1  UNL1       -0.2321
     27 C          60.3801   86.6413    8.5704 C.ar    1  UNL1        0.1195
     28 C          61.5035   84.2570    5.6034 C.1     1  UNL1        0.1198
     29 N          61.4592   83.4469    4.3417 N.1     1  UNL1       -0.1893
@<TRIPOS>BOND
     1    15    16    1
     2    16     3    1
     3     3     4   ar
     4     4     1    1
     5     1     2    1
     6     1    17    1
     7    17    19    1
     8    19    20    2
     9    19    21    2
    10    19    22    1
    11    22    23   ar
    12    23    24   ar
    13    24    25   ar
    14    25    28    1
    15    28    29    3
    16    25    26   ar
    17    26    27   ar
    18     4     5   ar
    19     5     6   ar
    20     6     7   ar
    21     7     8   ar
    22     8     9   ar
    23     9    12    1
    24    12    13    1
    25    13    14    1
    26     9    10   ar
    27    10    11   ar
    28    11     3   ar
    29    27    22   ar
    30    11     6   ar
    31    14    12    1
    32    17    18    1
@<TRIPOS>MOLECULE
*****
 29 32 0 0 0
SMALL
GASTEIGER

@<TRIPOS>ATOM
      1 C          61.1185   89.6996   10.7389 C.3     1  UNL1        0.1319
      2 C          59.9112   90.5512   10.4799 C.3     1  UNL1        0.0270
      3 N          63.3267   90.8945   11.6561 N.ar    1  UNL1       -0.3137
      4 C          62.0820   90.0748   11.8256 C.ar    1  UNL1        0.1363
      5 N          61.9698   89.6964   13.2727 N.ar    1  UNL1       -0.2280
      6 C          63.1452   90.2821   13.9975 C.ar    1  UNL1        0.1174
      7 C          63.5603   90.2368   15.4382 C.ar    1  UNL1        0.1190
      8 N          64.8139   90.9320   15.8798 N.ar    1  UNL1       -0.2465
      9 C          65.6525   91.6725   14.8806 C.ar    1  UNL1        0.0602
     10 C          65.2375   91.7178   13.4399 C.ar    1  UNL1        0.0335
     11 C          63.9839   91.0226   12.9984 C.ar    1  UNL1        0.0814
     12 C          66.9062   92.3678   15.3222 C.3     1  UNL1        0.0403
     13 C          67.7939   93.5768   15.3110 C.3     1  UNL1        0.0063
     14 C          68.1899   92.3629   16.0981 C.3     1  UNL1        0.0063
     15 C          64.8900   92.5404   10.3923 C.3     1  UNL1        0.0265
     16 C          63.8266   91.4828   10.3700 C.3     1  UNL1        0.1073
     17 N          61.3624   88.4727    9.9111 N.3     1  UNL1       -0.1735
     18 H          62.0956   88.7094    9.2427 H       1  UNL1        0.1492
     19 S          61.7767   87.1918   10.5726 S.O2    1  UNL1        0.0621
     20 O          60.6384   87.3235   11.5406 O.2     1  UNL1       -0.1529
     21 O          62.9150   87.0601    9.6047 O.2     1  UNL1       -0.1529
     22 C          62.1910   85.9109   11.2341 C.ar    1  UNL1        0.1411
     23 C          62.6609   84.7548   10.4019 C.ar    1  UNL1        0.0238
     24 C          63.0752   83.4739   11.0634 C.ar    1  UNL1        0.0310
     25 C          63.0196   83.3490   12.5572 C.ar    1  UNL1        0.1492
     26 N          62.5497   84.5052   13.3895 N.ar    1  UNL1       -0.2321
     27 C          62.1354   85.7861   12.7280 C.ar    1  UNL1        0.1195
     28 C          63.4339   82.0681   13.2187 C.1     1  UNL1        0.1198
     29 N          63.8482   80.7872   13.8802 N.1     1  UNL1       -0.1893
@<TRIPOS>BOND
     1    15    16    1
     2    16     3    1
     3     3     4   ar
     4     4     1    1
     5     1     2    1
     6     1    17    1
     7    17    19    1
     8    19    20    2
     9    19    21    2
    10    19    22    1
    11    22    23   ar
    12    23    24   ar
    13    24    25   ar
    14    25    28    1
    15    28    29    3
    16    25    26   ar
    17    26    27   ar
    18     4     5   ar
    19     5     6   ar
    20     6     7   ar
    21     7     8   ar
    22     8     9   ar
    23     9    12    1
    24    12    13    1
    25    13    14    1
    26     9    10   ar
    27    10    11   ar
    28    11     3   ar
    29    27    22   ar
    30    11     6   ar
    31    14    12    1
    32    17    18    1
@<TRIPOS>MOLECULE
*****
 29 32 0 0 0
SMALL
GASTEIGER

@<TRIPOS>ATOM
      1 C          63.2321   89.1748   15.6527 C.3     1  UNL1        0.1319
      2 C          61.7583   89.3459   15.8733 C.3     1  UNL1        0.0270
      3 N          64.0222   90.4045   13.4147 N.ar    1  UNL1       -0.3137
      4 C          64.0045   90.2196   14.9031 C.ar    1  UNL1        0.1363
      5 N          64.8947   91.2630   15.5104 N.ar    1  UNL1       -0.2280
      6 C          65.4627   92.0927   14.3972 C.ar    1  UNL1        0.1174
      7 C          66.4013   93.2627   14.3957 C.ar    1  UNL1        0.1190
      8 N          66.8005   93.9022   13.0990 N.ar    1  UNL1       -0.2465
      9 C          66.2613   93.3716   11.8037 C.ar    1  UNL1        0.0602
     10 C          65.3227   92.2015   11.8052 C.ar    1  UNL1        0.0335
     11 C          64.9235   91.5620   13.1020 C.ar    1  UNL1        0.0814
     12 C          66.6606   94.0111   10.5069 C.3     1  UNL1        0.0403
     13 C          67.4396   93.9735    9.2257 C.3     1  UNL1        0.0063
     14 C          66.5732   95.1563    9.5421 C.3     1  UNL1        0.0063
     15 C          61.9295   90.0323   11.9207 C.3     1  UNL1        0.0265
     16 C          63.2707   89.5770   12.4144 C.3     1  UNL1        0.1073
     17 N          63.9334   87.9590   16.1816 N.3     1  UNL1       -0.1735
     18 H          63.6572   87.8614   17.1586 H       1  UNL1        0.1492
     19 S          63.7123   86.6243   15.5337 S.O2    1  UNL1        0.0621
     20 O          62.7567   86.2514   16.6281 O.2     1  UNL1       -0.1529
     21 O          64.6679   86.9973   14.4393 O.2     1  UNL1       -0.1529
     22 C          63.4912   85.2897   14.8858 C.ar    1  UNL1        0.1411
     23 C          63.6464   85.1417   13.4013 C.ar    1  UNL1        0.0238
     24 C          63.4253   83.8070   12.7534 C.ar    1  UNL1        0.0310
     25 C          63.0490   82.6203   13.5901 C.ar    1  UNL1        0.1492
     26 N          62.8938   82.7682   15.0747 N.ar    1  UNL1       -0.2321
     27 C          63.1149   84.1029   15.7226 C.ar    1  UNL1        0.1195
     28 C          62.8279   81.2856   12.9422 C.1     1  UNL1        0.1198
     29 N          62.6068   79.9509   12.2943 N.1     1  UNL1       -0.1893
@<TRIPOS>BOND
     1    15    16    1
     2    16     3    1
     3     3     4   ar
     4     4     1    1
     5     1     2    1
     6     1    17    1
     7    17    19    1
     8    19    20    2
     9    19    21    2
    10    19    22    1
    11    22    23   ar
    12    23    24   ar
    13    24    25   ar
    14    25    28    1
    15    28    29    3
    16    25    26   ar
    17    26    27   ar
    18     4     5   ar
    19     5     6   ar
    20     6     7   ar
    21     7     8   ar
    22     8     9   ar
    23     9    12    1
    24    12    13    1
    25    13    14    1
    26     9    10   ar
    27    10    11   ar
    28    11     3   ar
    29    27    22   ar
    30    11     6   ar
    31    14    12    1
    32    17    18    1
@<TRIPOS>MOLECULE
*****
 29 32 0 0 0
SMALL
GASTEIGER

@<TRIPOS>ATOM
      1 C          62.5745   86.0701   12.3725 C.3     1  UNL1        0.1319
      2 C          63.3885   84.8309   12.5995 C.3     1  UNL1        0.0270
      3 N          64.0916   87.7453   13.7998 N.ar    1  UNL1       -0.3137
      4 C          63.1619   87.4181   12.6691 C.ar    1  UNL1        0.1363
      5 N          62.9227   88.6755   11.8870 N.ar    1  UNL1       -0.2280
      6 C          63.7046   89.7799   12.5344 C.ar    1  UNL1        0.1174
      7 C          63.8520   91.2347   12.2001 C.ar    1  UNL1        0.1190
      8 N          64.7219   92.1146   13.0481 N.ar    1  UNL1       -0.2465
      9 C          65.4443   91.5397   14.2303 C.ar    1  UNL1        0.0602
     10 C          65.2968   90.0849   14.5645 C.ar    1  UNL1        0.0335
     11 C          64.4270   89.2050   13.7166 C.ar    1  UNL1        0.0814
     12 C          66.3142   92.4197   15.0783 C.3     1  UNL1        0.0403
     13 C          67.2413   93.5916   15.2090 C.3     1  UNL1        0.0063
     14 C          66.8938   92.7719   16.4162 C.3     1  UNL1        0.0063
     15 C          63.7202   86.3882   15.9839 C.3     1  UNL1        0.0265
     16 C          64.5971   86.7820   14.8325 C.3     1  UNL1        0.1073
     17 N          61.1731   85.9614   11.8488 N.3     1  UNL1       -0.1735
     18 H          60.5507   86.1912   12.6235 H       1  UNL1        0.1492
     19 S          60.7411   86.8000   10.6826 S.O2    1  UNL1        0.0621
     20 O          60.0439   87.7423   11.6186 O.2     1  UNL1       -0.1529
     21 O          61.4382   85.8578    9.7467 O.2     1  UNL1       -0.1529
     22 C          60.3090   87.6387    9.5165 C.ar    1  UNL1        0.1411
     23 C          59.5696   87.0094    8.3732 C.ar    1  UNL1        0.0238
     24 C          59.1375   87.8481    7.2070 C.ar    1  UNL1        0.0310
     25 C          59.4448   89.3161    7.1842 C.ar    1  UNL1        0.1492
     26 N          60.1842   89.9454    8.3275 N.ar    1  UNL1       -0.2321
     27 C          60.6163   89.1068    9.4937 C.ar    1  UNL1        0.1195
     28 C          59.0127   90.1547    6.0180 C.1     1  UNL1        0.1198
     29 N          58.5806   90.9934    4.8518 N.1     1  UNL1       -0.1893
@<TRIPOS>BOND
     1    15    16    1
     2    16     3    1
     3     3     4   ar
     4     4     1    1
     5     1     2    1
     6     1    17    1
     7    17    19    1
     8    19    20    2
     9    19    21    2
    10    19    22    1
    11    22    23   ar
    12    23    24   ar
    13    24    25   ar
    14    25    28    1
    15    28    29    3
    16    25    26   ar
    17    26    27   ar
    18     4     5   ar
    19     5     6   ar
    20     6     7   ar
    21     7     8   ar
    22     8     9   ar
    23     9    12    1
    24    12    13    1
    25    13    14    1
    26     9    10   ar
    27    10    11   ar
    28    11     3   ar
    29    27    22   ar
    30    11     6   ar
    31    14    12    1
    32    17    18    1
@<TRIPOS>MOLECULE
*****
 29 32 0 0 0
SMALL
GASTEIGER

@<TRIPOS>ATOM
      1 C          63.4422   89.7413   13.7088 C.3     1  UNL1        0.1319
      2 C          64.0692   88.8445   14.7347 C.3     1  UNL1        0.0270
      3 N          64.3112   91.3321   11.7443 N.ar    1  UNL1       -0.3137
      4 C          64.1997   90.9246   13.1836 C.ar    1  UNL1        0.1363
      5 N          64.9788   91.9083   14.0054 N.ar    1  UNL1       -0.2280
      6 C          65.5718   92.9237   13.0741 C.ar    1  UNL1        0.1174
      7 C          66.4341   94.1265   13.3180 C.ar    1  UNL1        0.1190
      8 N          66.8839   94.9732   12.1645 N.ar    1  UNL1       -0.2465
      9 C          66.4713   94.6171   10.7670 C.ar    1  UNL1        0.0602
     10 C          65.6090   93.4142   10.5230 C.ar    1  UNL1        0.0335
     11 C          65.1592   92.5675   11.6766 C.ar    1  UNL1        0.0814
     12 C          66.9211   95.4638    9.6134 C.3     1  UNL1        0.0403
     13 C          67.2458   96.8113    9.0399 C.3     1  UNL1        0.0063
     14 C          67.3755   95.5830    8.1888 C.3     1  UNL1        0.0063
     15 C          62.7230   91.3587    9.6884 C.3     1  UNL1        0.0265
     16 C          63.6848   90.6277   10.5775 C.3     1  UNL1        0.1073
     17 N          62.0576   89.4547   13.2080 N.3     1  UNL1       -0.1735
     18 H          61.6271   90.3559   13.0006 H       1  UNL1        0.1492
     19 S          61.8617   88.5922   11.9965 S.O2    1  UNL1        0.0621
     20 O          63.1188   87.8433   12.3265 O.2     1  UNL1       -0.1529
     21 O          60.6047   89.3411   11.6665 O.2     1  UNL1       -0.1529
     22 C          61.6659   87.7297   10.7850 C.ar    1  UNL1        0.1411
     23 C          62.4152   86.4367   10.6558 C.ar    1  UNL1        0.0238
     24 C          62.2193   85.5742    9.4443 C.ar    1  UNL1        0.0310
     25 C          61.2742   86.0046    8.3620 C.ar    1  UNL1        0.1492
     26 N          60.5249   87.2977    8.4912 N.ar    1  UNL1       -0.2321
     27 C          60.7207   88.1602    9.7027 C.ar    1  UNL1        0.1195
     28 C          61.0784   85.1421    7.1506 C.1     1  UNL1        0.1198
     29 N          60.8825   84.2796    5.9391 N.1     1  UNL1       -0.1893
@<TRIPOS>BOND
     1    15    16    1
     2    16     3    1
     3     3     4   ar
     4     4     1    1
     5     1     2    1
     6     1    17    1
     7    17    19    1
     8    19    20    2
     9    19    21    2
    10    19    22    1
    11    22    23   ar
    12    23    24   ar
    13    24    25   ar
    14    25    28    1
    15    28    29    3
    16    25    26   ar
    17    26    27   ar
    18     4     5   ar
    19     5     6   ar
    20     6     7   ar
    21     7     8   ar
    22     8     9   ar
    23     9    12    1
    24    12    13    1
    25    13    14    1
    26     9    10   ar
    27    10    11   ar
    28    11     3   ar
    29    27    22   ar
    30    11     6   ar
    31    14    12    1
    32    17    18    1
@<TRIPOS>MOLECULE
*****
 29 32 0 0 0
SMALL
GASTEIGER

@<TRIPOS>ATOM
      1 C          63.9612   88.7075   14.1667 C.3     1  UNL1        0.1319
      2 C          65.0311   88.8635   15.2064 C.3     1  UNL1        0.0270
      3 N          63.7119   86.0557   14.3921 N.ar    1  UNL1       -0.3137
      4 C          63.6275   87.3462   13.6323 C.ar    1  UNL1        0.1363
      5 N          63.1510   87.0365   12.2441 N.ar    1  UNL1       -0.2280
      6 C          62.9408   85.5545   12.1461 C.ar    1  UNL1        0.1174
      7 C          62.4786   84.6787   11.0194 C.ar    1  UNL1        0.1190
      8 N          62.3630   83.1968   11.2204 N.ar    1  UNL1       -0.2465
      9 C          62.7096   82.5906   12.5479 C.ar    1  UNL1        0.0602
     10 C          63.1719   83.4664   13.6745 C.ar    1  UNL1        0.0335
     11 C          63.2875   84.9483   13.4736 C.ar    1  UNL1        0.0814
     12 C          62.5940   81.1086   12.7488 C.3     1  UNL1        0.0403
     13 C          62.3238   79.9363   13.6447 C.3     1  UNL1        0.0063
     14 C          62.6640   79.7140   12.2009 C.3     1  UNL1        0.0063
     15 C          63.1647   86.1355   16.9306 C.3     1  UNL1        0.0265
     16 C          64.1446   85.8998   15.8199 C.3     1  UNL1        0.1073
     17 N          63.2248   89.9127   13.6616 N.3     1  UNL1       -0.1735
     18 H          62.7665   90.3371   14.4679 H       1  UNL1        0.1492
     19 S          63.9718   91.0090   12.9615 S.O2    1  UNL1        0.0621
     20 O          63.7380   90.3279   11.6456 O.2     1  UNL1       -0.1529
     21 O          64.2055   91.6901   14.2773 O.2     1  UNL1       -0.1529
     22 C          64.7187   92.1053   12.2613 C.ar    1  UNL1        0.1411
     23 C          64.4897   92.3543   10.8000 C.ar    1  UNL1        0.0238
     24 C          65.2366   93.4506   10.0998 C.ar    1  UNL1        0.0310
     25 C          66.2125   94.2980   10.8610 C.ar    1  UNL1        0.1492
     26 N          66.4416   94.0491   12.3225 N.ar    1  UNL1       -0.2321
     27 C          65.6946   92.9528   13.0226 C.ar    1  UNL1        0.1195
     28 C          66.9595   95.3943   10.1609 C.1     1  UNL1        0.1198
     29 N          67.7064   96.4906    9.4608 N.1     1  UNL1       -0.1893
@<TRIPOS>BOND
     1    15    16    1
     2    16     3    1
     3     3     4   ar
     4     4     1    1
     5     1     2    1
     6     1    17    1
     7    17    19    1
     8    19    20    2
     9    19    21    2
    10    19    22    1
    11    22    23   ar
    12    23    24   ar
    13    24    25   ar
    14    25    28    1
    15    28    29    3
    16    25    26   ar
    17    26    27   ar
    18     4     5   ar
    19     5     6   ar
    20     6     7   ar
    21     7     8   ar
    22     8     9   ar
    23     9    12    1
    24    12    13    1
    25    13    14    1
    26     9    10   ar
    27    10    11   ar
    28    11     3   ar
    29    27    22   ar
    30    11     6   ar
    31    14    12    1
    32    17    18    1
