@<TRIPOS>MOLECULE
*****
 30 34 0 0 0
SMALL
GASTEIGER

@<TRIPOS>ATOM
      1 N          61.8427   86.2033   11.3712 N.3     1  UNL1       -0.3219
      2 C          62.8010   86.7498   12.3874 C.3     1  UNL1        0.0563
      3 C          63.2607   88.1746   12.2948 C.3     1  UNL1        0.0318
      4 C          64.2191   88.7211   13.3111 C.3     1  UNL1        0.0595
      5 C          64.7178   87.8427   14.4200 C.3     1  UNL1        0.0164
      6 C          64.2582   86.4178   14.5127 C.3     1  UNL1        0.0071
      7 C          63.2998   85.8713   13.4964 C.3     1  UNL1        0.0389
      8 H          61.6110   86.9319   10.6960 H       1  UNL1        0.1188
      9 H          60.9922   85.8908   11.8395 H       1  UNL1        0.1188
     10 N          64.6788   90.1459   13.2185 N.3     1  UNL1       -0.2650
     11 C          65.2466   90.9638   14.3404 C.3     1  UNL1        0.1205
     12 C          65.5701   92.3264   13.8029 C.ar    1  UNL1        0.0954
     13 N          66.1209   93.6740   14.1641 N.ar    1  UNL1       -0.1669
     14 N          66.0935   94.5311   12.9334 N.ar    1  UNL1       -0.2112
     15 C          66.5122   95.9506   12.6893 C.ar    1  UNL1        0.1037
     16 C          66.3631   96.5522   11.3233 C.ar    1  UNL1        0.0414
     17 C          65.7953   95.7342   10.2015 C.ar    1  UNL1        0.1022
     18 N          65.3766   94.3147   10.4456 N.ar    1  UNL1       -0.2252
     19 C          65.5257   93.7131   11.8115 C.ar    1  UNL1        0.1623
     20 C          65.2022   92.3506   12.3489 C.ar    1  UNL1        0.0463
     21 C          64.6513   91.0029   11.9877 C.3     1  UNL1        0.1038
     22 C          62.8402   84.4466   13.5890 C.ar    1  UNL1        0.0086
     23 C          63.0288   83.5205   12.4242 C.ar    1  UNL1        0.0300
     24 C          62.5692   82.0956   12.5168 C.ar    1  UNL1        0.1672
     25 F          62.7578   81.1695   11.3520 F       1  UNL1       -0.2018
     26 C          61.9210   81.5969   13.7742 C.ar    1  UNL1        0.1696
     27 F          61.4613   80.1720   13.8668 F       1  UNL1       -0.2017
     28 C          61.7324   82.5230   14.9390 C.ar    1  UNL1        0.0612
     29 C          62.1920   83.9478   14.8464 C.ar    1  UNL1        0.1385
     30 F          62.0034   84.8740   16.0112 F       1  UNL1       -0.2044
@<TRIPOS>BOND
     1     2     1    1
     2     2     3    1
     3     3     4    1
     4     4    10    1
     5    10    11    1
     6    11    12    1
     7    12    13   ar
     8    13    14   ar
     9    14    15   ar
    10    15    16   ar
    11    16    17   ar
    12    17    18   ar
    13    18    19   ar
    14    19    20   ar
    15    20    21    1
    16     4     5    1
    17     5     6    1
    18     6     7    1
    19     7    22    1
    20    22    23   ar
    21    23    24   ar
    22    24    25    1
    23    24    26   ar
    24    26    27    1
    25    26    28   ar
    26    28    29   ar
    27    29    30    1
    28     7     2    1
    29    29    22   ar
    30    21    10    1
    31    20    12   ar
    32    19    14   ar
    33     1     8    1
    34     1     9    1
@<TRIPOS>MOLECULE
*****
 30 34 0 0 0
SMALL
GASTEIGER

@<TRIPOS>ATOM
      1 N          58.5284   91.6694   -0.5893 N.3     1  UNL1       -0.3219
      2 C          58.1586   93.1067   -0.8069 C.3     1  UNL1        0.0563
      3 C          56.8210   93.4574   -1.3881 C.3     1  UNL1        0.0318
      4 C          56.4514   94.8948   -1.6057 C.3     1  UNL1        0.0595
      5 C          57.4193   95.9814   -1.2421 C.3     1  UNL1        0.0164
      6 C          58.7570   95.6307   -0.6609 C.3     1  UNL1        0.0071
      7 C          59.1267   94.1934   -0.4433 C.3     1  UNL1        0.0389
      8 H          57.7588   91.0712   -0.8897 H       1  UNL1        0.1188
      9 H          58.7144   91.5124    0.4012 H       1  UNL1        0.1188
     10 N          55.1138   95.2455   -2.1869 N.3     1  UNL1       -0.2650
     11 C          53.8376   95.4223   -1.4187 C.3     1  UNL1        0.1205
     12 C          52.7526   95.7671   -2.3954 C.ar    1  UNL1        0.0954
     13 N          51.2934   96.0894   -2.5243 N.ar    1  UNL1       -0.1669
     14 N          50.9970   96.3249   -3.9757 N.ar    1  UNL1       -0.2112
     15 C          49.7301   96.6775   -4.6971 C.ar    1  UNL1        0.1037
     16 C          49.7393   96.8532   -6.1867 C.ar    1  UNL1        0.0414
     17 C          51.0155   96.6764   -6.9550 C.ar    1  UNL1        0.1022
     18 N          52.2824   96.3238   -6.2336 N.ar    1  UNL1       -0.2252
     19 C          52.2732   96.1481   -4.7440 C.ar    1  UNL1        0.1623
     20 C          53.3582   95.8033   -3.7672 C.ar    1  UNL1        0.0463
     21 C          54.8175   95.4809   -3.6384 C.3     1  UNL1        0.1038
     22 C          60.4642   93.8427    0.1379 C.ar    1  UNL1        0.0086
     23 C          61.6973   93.9298   -0.7119 C.ar    1  UNL1        0.0300
     24 C          63.0349   93.5792   -0.1308 C.ar    1  UNL1        0.1672
     25 F          64.2680   93.6663   -0.9805 F       1  UNL1       -0.2018
     26 C          63.1396   93.1415    1.3001 C.ar    1  UNL1        0.1696
     27 F          64.4773   92.7908    1.8813 F       1  UNL1       -0.2017
     28 C          61.9065   93.0544    2.1499 C.ar    1  UNL1        0.0612
     29 C          60.5689   93.4050    1.5688 C.ar    1  UNL1        0.1385
     30 F          59.3358   93.3179    2.4185 F       1  UNL1       -0.2044
@<TRIPOS>BOND
     1     2     1    1
     2     2     3    1
     3     3     4    1
     4     4    10    1
     5    10    11    1
     6    11    12    1
     7    12    13   ar
     8    13    14   ar
     9    14    15   ar
    10    15    16   ar
    11    16    17   ar
    12    17    18   ar
    13    18    19   ar
    14    19    20   ar
    15    20    21    1
    16     4     5    1
    17     5     6    1
    18     6     7    1
    19     7    22    1
    20    22    23   ar
    21    23    24   ar
    22    24    25    1
    23    24    26   ar
    24    26    27    1
    25    26    28   ar
    26    28    29   ar
    27    29    30    1
    28     7     2    1
    29    29    22   ar
    30    21    10    1
    31    20    12   ar
    32    19    14   ar
    33     1     8    1
    34     1     9    1
@<TRIPOS>MOLECULE
*****
 30 34 0 0 0
SMALL
GASTEIGER

@<TRIPOS>ATOM
      1 N          64.5958   84.2926   15.5902 N.3     1  UNL1       -0.3219
      2 C          64.1217   85.2147   14.5063 C.3     1  UNL1        0.0563
      3 C          64.5375   86.6559   14.5125 C.3     1  UNL1        0.0318
      4 C          64.0633   87.5780   13.4285 C.3     1  UNL1        0.0595
      5 C          63.1733   87.0588   12.3384 C.3     1  UNL1        0.0164
      6 C          62.7575   85.6176   12.3322 C.3     1  UNL1        0.0071
      7 C          63.2317   84.6955   13.4162 C.3     1  UNL1        0.0389
      8 H          65.1866   84.8092   16.2417 H       1  UNL1        0.1188
      9 H          65.1317   83.5294   15.1770 H       1  UNL1        0.1188
     10 N          64.4791   89.0191   13.4347 N.3     1  UNL1       -0.2650
     11 C          64.9122   89.8067   14.6356 C.3     1  UNL1        0.1205
     12 C          65.2356   91.2001   14.1840 C.ar    1  UNL1        0.0954
     13 N          65.7031   92.5481   14.6472 N.ar    1  UNL1       -0.1669
     14 N          65.7588   93.4548   13.4535 N.ar    1  UNL1       -0.2112
     15 C          66.1479   94.8957   13.3049 C.ar    1  UNL1        0.1037
     16 C          66.1039   95.5491   11.9555 C.ar    1  UNL1        0.0414
     17 C          65.6708   94.7615   10.7546 C.ar    1  UNL1        0.1022
     18 N          65.2817   93.3206   10.9031 N.ar    1  UNL1       -0.2252
     19 C          65.3257   92.6672   12.2526 C.ar    1  UNL1        0.1623
     20 C          65.0023   91.2738   12.7041 C.ar    1  UNL1        0.0463
     21 C          64.5348   89.9258   12.2409 C.3     1  UNL1        0.1038
     22 C          62.8158   83.2544   13.4099 C.ar    1  UNL1        0.0086
     23 C          61.5604   82.8330   14.1145 C.ar    1  UNL1        0.0300
     24 C          61.1445   81.3918   14.1084 C.ar    1  UNL1        0.1672
     25 F          59.8891   80.9705   14.8129 F       1  UNL1       -0.2018
     26 C          61.9840   80.3720   13.3976 C.ar    1  UNL1        0.1696
     27 F          61.5681   78.9308   13.3914 F       1  UNL1       -0.2017
     28 C          63.2394   80.7934   12.6930 C.ar    1  UNL1        0.0612
     29 C          63.6553   82.2346   12.6992 C.ar    1  UNL1        0.1385
     30 F          64.9107   82.6559   11.9946 F       1  UNL1       -0.2044
@<TRIPOS>BOND
     1     2     1    1
     2     2     3    1
     3     3     4    1
     4     4    10    1
     5    10    11    1
     6    11    12    1
     7    12    13   ar
     8    13    14   ar
     9    14    15   ar
    10    15    16   ar
    11    16    17   ar
    12    17    18   ar
    13    18    19   ar
    14    19    20   ar
    15    20    21    1
    16     4     5    1
    17     5     6    1
    18     6     7    1
    19     7    22    1
    20    22    23   ar
    21    23    24   ar
    22    24    25    1
    23    24    26   ar
    24    26    27    1
    25    26    28   ar
    26    28    29   ar
    27    29    30    1
    28     7     2    1
    29    29    22   ar
    30    21    10    1
    31    20    12   ar
    32    19    14   ar
    33     1     8    1
    34     1     9    1
@<TRIPOS>MOLECULE
*****
 30 34 0 0 0
SMALL
GASTEIGER

@<TRIPOS>ATOM
      1 N          64.2557   83.5661   15.8610 N.3     1  UNL1       -0.3219
      2 C          63.8382   84.4976   14.7620 C.3     1  UNL1        0.0563
      3 C          64.2818   85.9303   14.7841 C.3     1  UNL1        0.0318
      4 C          63.8643   86.8618   13.6850 C.3     1  UNL1        0.0595
      5 C          63.0032   86.3606   12.5638 C.3     1  UNL1        0.0164
      6 C          62.5596   84.9278   12.5415 C.3     1  UNL1        0.0071
      7 C          62.9771   83.9963   13.6407 C.3     1  UNL1        0.0389
      8 H          64.8333   84.0708   16.5334 H       1  UNL1        0.1188
      9 H          64.7907   82.7926   15.4662 H       1  UNL1        0.1188
     10 N          64.3078   88.2946   13.7072 N.3     1  UNL1       -0.2650
     11 C          63.7406   89.4061   12.8749 C.3     1  UNL1        0.1205
     12 C          64.4787   90.6658   13.2189 C.ar    1  UNL1        0.0954
     13 N          64.5844   92.1313   12.9172 N.ar    1  UNL1       -0.1669
     14 N          65.6731   92.7041   13.7755 N.ar    1  UNL1       -0.2112
     15 C          66.2212   94.0941   13.9067 C.ar    1  UNL1        0.1037
     16 C          67.3365   94.3726   14.8703 C.ar    1  UNL1        0.0414
     17 C          67.9038   93.2611   15.7025 C.ar    1  UNL1        0.1022
     18 N          67.3557   91.8710   15.5713 N.ar    1  UNL1       -0.2252
     19 C          66.2403   91.5925   14.6077 C.ar    1  UNL1        0.1623
     20 C          65.5022   90.3328   14.2638 C.ar    1  UNL1        0.0463
     21 C          65.3966   88.8672   14.5656 C.3     1  UNL1        0.1038
     22 C          62.5335   82.5636   13.6184 C.ar    1  UNL1        0.0086
     23 C          61.1899   82.1859   14.1679 C.ar    1  UNL1        0.0300
     24 C          60.7462   80.7532   14.1457 C.ar    1  UNL1        0.1672
     25 F          59.4025   80.3755   14.6952 F       1  UNL1       -0.2018
     26 C          61.6462   79.6982   13.5740 C.ar    1  UNL1        0.1696
     27 F          61.2026   78.2654   13.5518 F       1  UNL1       -0.2017
     28 C          62.9899   80.0759   13.0246 C.ar    1  UNL1        0.0612
     29 C          63.4336   81.5086   13.0468 C.ar    1  UNL1        0.1385
     30 F          64.7772   81.8862   12.4973 F       1  UNL1       -0.2044
@<TRIPOS>BOND
     1     2     1    1
     2     2     3    1
     3     3     4    1
     4     4    10    1
     5    10    11    1
     6    11    12    1
     7    12    13   ar
     8    13    14   ar
     9    14    15   ar
    10    15    16   ar
    11    16    17   ar
    12    17    18   ar
    13    18    19   ar
    14    19    20   ar
    15    20    21    1
    16     4     5    1
    17     5     6    1
    18     6     7    1
    19     7    22    1
    20    22    23   ar
    21    23    24   ar
    22    24    25    1
    23    24    26   ar
    24    26    27    1
    25    26    28   ar
    26    28    29   ar
    27    29    30    1
    28     7     2    1
    29    29    22   ar
    30    21    10    1
    31    20    12   ar
    32    19    14   ar
    33     1     8    1
    34     1     9    1
@<TRIPOS>MOLECULE
*****
 30 34 0 0 0
SMALL
GASTEIGER

@<TRIPOS>ATOM
      1 N          59.5153   93.3917    0.6308 N.3     1  UNL1       -0.3219
      2 C          59.4071   94.2776   -0.5747 C.3     1  UNL1        0.0563
      3 C          58.0783   94.4787   -1.2409 C.3     1  UNL1        0.0318
      4 C          57.9702   95.3648   -2.4464 C.3     1  UNL1        0.0595
      5 C          59.1908   96.0497   -2.9857 C.3     1  UNL1        0.0164
      6 C          60.5197   95.8485   -2.3195 C.3     1  UNL1        0.0071
      7 C          60.6279   94.9625   -1.1140 C.3     1  UNL1        0.0389
      8 H          58.5962   93.0117    0.8571 H       1  UNL1        0.1188
      9 H          59.8630   93.9343    1.4214 H       1  UNL1        0.1188
     10 N          56.6414   95.5659   -3.1126 N.3     1  UNL1       -0.2650
     11 C          56.3677   95.4609   -4.5837 C.3     1  UNL1        0.1205
     12 C          54.9101   95.7375   -4.8049 C.ar    1  UNL1        0.0954
     13 N          53.8402   95.8435   -5.8508 N.ar    1  UNL1       -0.1669
     14 N          52.5517   96.1850   -5.1629 N.ar    1  UNL1       -0.2112
     15 C          51.1646   96.4138   -5.6860 C.ar    1  UNL1        0.1037
     16 C          50.0512   96.7477   -4.7379 C.ar    1  UNL1        0.0414
     17 C          50.3249   96.8527   -3.2668 C.ar    1  UNL1        0.1022
     18 N          51.7119   96.6238   -2.7438 N.ar    1  UNL1       -0.2252
     19 C          52.8253   96.2900   -3.6918 C.ar    1  UNL1        0.1623
     20 C          54.2829   96.0134   -3.4706 C.ar    1  UNL1        0.0463
     21 C          55.3529   95.9074   -2.4246 C.3     1  UNL1        0.1038
     22 C          61.9566   94.7614   -0.4479 C.ar    1  UNL1        0.0086
     23 C          62.3344   95.5968    0.7394 C.ar    1  UNL1        0.0300
     24 C          63.6632   95.3957    1.4056 C.ar    1  UNL1        0.1672
     25 F          64.0410   96.2310    2.5929 F       1  UNL1       -0.2018
     26 C          64.6142   94.3594    0.8846 C.ar    1  UNL1        0.1696
     27 F          65.9431   94.1583    1.5508 F       1  UNL1       -0.2017
     28 C          64.2365   93.5241   -0.3027 C.ar    1  UNL1        0.0612
     29 C          62.9077   93.7251   -0.9689 C.ar    1  UNL1        0.1385
     30 F          62.5299   92.8898   -2.1562 F       1  UNL1       -0.2044
@<TRIPOS>BOND
     1     2     1    1
     2     2     3    1
     3     3     4    1
     4     4    10    1
     5    10    11    1
     6    11    12    1
     7    12    13   ar
     8    13    14   ar
     9    14    15   ar
    10    15    16   ar
    11    16    17   ar
    12    17    18   ar
    13    18    19   ar
    14    19    20   ar
    15    20    21    1
    16     4     5    1
    17     5     6    1
    18     6     7    1
    19     7    22    1
    20    22    23   ar
    21    23    24   ar
    22    24    25    1
    23    24    26   ar
    24    26    27    1
    25    26    28   ar
    26    28    29   ar
    27    29    30    1
    28     7     2    1
    29    29    22   ar
    30    21    10    1
    31    20    12   ar
    32    19    14   ar
    33     1     8    1
    34     1     9    1
@<TRIPOS>MOLECULE
*****
 30 34 0 0 0
SMALL
GASTEIGER

@<TRIPOS>ATOM
      1 N          63.4706   91.0236   10.9907 N.3     1  UNL1       -0.3219
      2 C          63.9781   90.2570   12.1758 C.3     1  UNL1        0.0563
      3 C          63.5289   88.8441   12.4035 C.3     1  UNL1        0.0318
      4 C          64.0365   88.0775   13.5888 C.3     1  UNL1        0.0595
      5 C          64.9931   88.7239   14.5463 C.3     1  UNL1        0.0164
      6 C          65.4423   90.1369   14.3187 C.3     1  UNL1        0.0071
      7 C          64.9348   90.9035   13.1334 C.3     1  UNL1        0.0389
      8 H          62.8352   90.4351   10.4518 H       1  UNL1        0.1188
      9 H          64.2570   91.3015   10.4035 H       1  UNL1        0.1188
     10 N          63.5873   86.6646   13.8165 N.3     1  UNL1       -0.2650
     11 C          63.0336   86.1107   15.0958 C.3     1  UNL1        0.1205
     12 C          62.7171   84.6613   14.8748 C.ar    1  UNL1        0.0954
     13 N          62.1793   83.4231   15.5288 N.ar    1  UNL1       -0.1669
     14 N          62.2050   82.3159   14.5172 N.ar    1  UNL1       -0.2112
     15 C          61.7958   80.8750   14.5957 C.ar    1  UNL1        0.1037
     16 C          61.9403   79.9879   13.3948 C.ar    1  UNL1        0.0414
     17 C          62.4940   80.5417   12.1155 C.ar    1  UNL1        0.1022
     18 N          62.9033   81.9826   12.0370 N.ar    1  UNL1       -0.2252
     19 C          62.7588   82.8697   13.2379 C.ar    1  UNL1        0.1623
     20 C          63.0752   84.3192   13.4589 C.ar    1  UNL1        0.0463
     21 C          63.6131   85.5574   12.8048 C.3     1  UNL1        0.1038
     22 C          65.3840   92.3163   12.9058 C.ar    1  UNL1        0.0086
     23 C          65.1921   92.9572   11.5632 C.ar    1  UNL1        0.0300
     24 C          65.6413   94.3701   11.3354 C.ar    1  UNL1        0.1672
     25 F          65.4494   95.0110    9.9929 F       1  UNL1       -0.2018
     26 C          66.2823   95.1422   12.4503 C.ar    1  UNL1        0.1696
     27 F          66.7315   96.5552   12.2226 F       1  UNL1       -0.2017
     28 C          66.4742   94.5013   13.7929 C.ar    1  UNL1        0.0612
     29 C          66.0250   93.0884   14.0206 C.ar    1  UNL1        0.1385
     30 F          66.2169   92.4476   15.3632 F       1  UNL1       -0.2044
@<TRIPOS>BOND
     1     2     1    1
     2     2     3    1
     3     3     4    1
     4     4    10    1
     5    10    11    1
     6    11    12    1
     7    12    13   ar
     8    13    14   ar
     9    14    15   ar
    10    15    16   ar
    11    16    17   ar
    12    17    18   ar
    13    18    19   ar
    14    19    20   ar
    15    20    21    1
    16     4     5    1
    17     5     6    1
    18     6     7    1
    19     7    22    1
    20    22    23   ar
    21    23    24   ar
    22    24    25    1
    23    24    26   ar
    24    26    27    1
    25    26    28   ar
    26    28    29   ar
    27    29    30    1
    28     7     2    1
    29    29    22   ar
    30    21    10    1
    31    20    12   ar
    32    19    14   ar
    33     1     8    1
    34     1     9    1
@<TRIPOS>MOLECULE
*****
 30 34 0 0 0
SMALL
GASTEIGER

@<TRIPOS>ATOM
      1 N          63.0122   88.9977   12.4260 N.3     1  UNL1       -0.3219
      2 C          63.5483   87.8763   13.2656 C.3     1  UNL1        0.0563
      3 C          63.2538   86.4535   12.8932 C.3     1  UNL1        0.0318
      4 C          63.7899   85.3321   13.7329 C.3     1  UNL1        0.0595
      5 C          64.6206   85.6335   14.9450 C.3     1  UNL1        0.0164
      6 C          64.9151   87.0565   15.3174 C.3     1  UNL1        0.0071
      7 C          64.3789   88.1779   14.4778 C.3     1  UNL1        0.0389
      8 H          62.4742   88.6137   11.6492 H       1  UNL1        0.1188
      9 H          63.7881   89.5507   12.0618 H       1  UNL1        0.1188
     10 N          63.4955   83.9092   13.3605 N.3     1  UNL1       -0.2650
     11 C          63.0374   82.8297   14.2959 C.3     1  UNL1        0.1205
     12 C          62.8662   81.5693   13.5008 C.ar    1  UNL1        0.0954
     13 N          62.4773   80.1232   13.5874 N.ar    1  UNL1       -0.1669
     14 N          62.5892   79.5300   12.2143 N.ar    1  UNL1       -0.2112
     15 C          62.3332   78.1463   11.6948 C.ar    1  UNL1        0.1037
     16 C          62.5352   77.8422   10.2399 C.ar    1  UNL1        0.0414
     17 C          62.9933   78.9216    9.3046 C.ar    1  UNL1        0.1022
     18 N          63.2494   80.3053    9.8241 N.ar    1  UNL1       -0.2252
     19 C          63.0473   80.6095   11.2789 C.ar    1  UNL1        0.1623
     20 C          63.2185   81.8698   12.0740 C.ar    1  UNL1        0.0463
     21 C          63.6074   83.3160   11.9873 C.3     1  UNL1        0.1038
     22 C          64.6734   89.6007   14.8502 C.ar    1  UNL1        0.0086
     23 C          65.7667   90.3491   14.1468 C.ar    1  UNL1        0.0300
     24 C          66.0613   91.7720   14.5192 C.ar    1  UNL1        0.1672
     25 F          67.1545   92.5204   13.8159 F       1  UNL1       -0.2018
     26 C          65.2626   92.4464   15.5950 C.ar    1  UNL1        0.1696
     27 F          65.5571   93.8693   15.9675 F       1  UNL1       -0.2017
     28 C          64.1693   91.6979   16.2983 C.ar    1  UNL1        0.0612
     29 C          63.8748   90.2751   15.9259 C.ar    1  UNL1        0.1385
     30 F          62.7815   89.5266   16.6293 F       1  UNL1       -0.2044
@<TRIPOS>BOND
     1     2     1    1
     2     2     3    1
     3     3     4    1
     4     4    10    1
     5    10    11    1
     6    11    12    1
     7    12    13   ar
     8    13    14   ar
     9    14    15   ar
    10    15    16   ar
    11    16    17   ar
    12    17    18   ar
    13    18    19   ar
    14    19    20   ar
    15    20    21    1
    16     4     5    1
    17     5     6    1
    18     6     7    1
    19     7    22    1
    20    22    23   ar
    21    23    24   ar
    22    24    25    1
    23    24    26   ar
    24    26    27    1
    25    26    28   ar
    26    28    29   ar
    27    29    30    1
    28     7     2    1
    29    29    22   ar
    30    21    10    1
    31    20    12   ar
    32    19    14   ar
    33     1     8    1
    34     1     9    1
