@<TRIPOS>MOLECULE
*****
 28 31 0 0 0
SMALL
GASTEIGER

@<TRIPOS>ATOM
      1 C          64.9570   92.4617   11.8053 C.ar    1  UNL1        0.0515
      2 C          65.7507   92.2943   13.0670 C.ar    1  UNL1        0.0160
      3 C          65.3881   91.2149   14.0436 C.ar    1  UNL1        0.0175
      4 C          64.2318   90.3031   13.7584 C.ar    1  UNL1        0.0718
      5 C          63.4380   90.4705   12.4967 C.ar    1  UNL1        0.0730
      6 CL         62.2817   89.5586   12.2114 Cl      1  UNL1       -0.0809
      7 C          63.8006   91.5498   11.5202 C.ar    1  UNL1        0.0273
      8 N          63.8692   89.2237   14.7349 N.am    1  UNL1       -0.2002
      9 C          63.8885   87.7482   14.4656 C.2     1  UNL1        0.2590
     10 O          64.2738   87.0930   13.1724 O.2     1  UNL1       -0.2691
     11 C          63.4548   87.0430   15.7164 C.ar    1  UNL1        0.0617
     12 C          63.2845   85.5885   16.0409 C.ar    1  UNL1        0.0254
     13 C          62.8268   85.1736   17.4077 C.ar    1  UNL1        0.0990
     14 N          62.5395   86.2132   18.4501 N.ar    1  UNL1       -0.2422
     15 C          62.7098   87.6677   18.1257 C.ar    1  UNL1        0.1035
     16 C          63.1675   88.0826   16.7588 C.ar    1  UNL1        0.0778
     17 C          63.4236   89.4304   16.1522 C.2     1  UNL1        0.2604
     18 O          63.2623   90.7526   16.8418 O.2     1  UNL1       -0.2691
     19 C          66.7022   93.5949   10.2497 C.2     1  UNL1        0.2839
     20 O          67.7223   92.5695   10.6472 O.2     1  UNL1       -0.2665
     21 N          65.3196   93.5410   10.8288 N.am    1  UNL1       -0.2778
     22 H          64.6501   94.2141   10.5680 H       1  UNL1        0.1553
     23 C          66.5976   96.8073   10.8150 C.3     1  UNL1        0.0345
     24 C          67.0167   96.1509    9.5331 C.ar    1  UNL1        0.0204
     25 C          67.4613   96.8557    8.2858 C.ar    1  UNL1        0.0396
     26 C          67.7842   95.8147    7.2552 C.ar    1  UNL1        0.1795
     27 O          67.5391   94.4666    7.8655 O.2     1  UNL1       -0.4461
     28 C          67.0648   94.6743    9.2732 C.ar    1  UNL1        0.1948
@<TRIPOS>BOND
     1    23    24    1
     2    24    25   ar
     3    25    26   ar
     4    26    27   ar
     5    27    28   ar
     6    28    19    1
     7    19    20    2
     8    19    21   am
     9    21     1    1
    10     1     2   ar
    11     2     3   ar
    12     3     4   ar
    13     4     8    1
    14     8     9   am
    15     9    10    2
    16     9    11    1
    17    11    12   ar
    18    12    13   ar
    19    13    14   ar
    20    14    15   ar
    21    15    16   ar
    22    16    17    1
    23    17    18    2
    24     4     5   ar
    25     5     6    1
    26     5     7   ar
    27    28    24   ar
    28     7     1   ar
    29    17     8   am
    30    16    11   ar
    31    21    22    1
@<TRIPOS>MOLECULE
*****
 28 31 0 0 0
SMALL
GASTEIGER

@<TRIPOS>ATOM
      1 C          64.8628   92.4233   11.6980 C.ar    1  UNL1        0.0515
      2 C          63.7321   91.4737   11.4340 C.ar    1  UNL1        0.0160
      3 C          63.3929   90.4134   12.4393 C.ar    1  UNL1        0.0175
      4 C          64.1844   90.3026   13.7086 C.ar    1  UNL1        0.0718
      5 C          65.3152   91.2521   13.9725 C.ar    1  UNL1        0.0730
      6 CL         66.1068   91.1413   15.2419 Cl      1  UNL1       -0.0809
      7 C          65.6544   92.3124   12.9672 C.ar    1  UNL1        0.0273
      8 N          63.8452   89.2422   14.7139 N.am    1  UNL1       -0.2002
      9 C          63.4380   89.4759   16.1385 C.2     1  UNL1        0.2590
     10 O          63.2984   90.8109   16.8079 O.2     1  UNL1       -0.2691
     11 C          63.1948   88.1401   16.7762 C.ar    1  UNL1        0.0617
     12 C          62.7726   87.7515   18.1620 C.ar    1  UNL1        0.0254
     13 C          62.6073   86.3036   18.5173 C.ar    1  UNL1        0.0990
     14 N          62.8643   85.2444   17.4868 N.ar    1  UNL1       -0.2422
     15 C          63.2865   85.6330   16.1010 C.ar    1  UNL1        0.1035
     16 C          63.4518   87.0809   15.7456 C.ar    1  UNL1        0.0778
     17 C          63.8538   87.7620   14.4711 C.2     1  UNL1        0.2604
     18 O          64.2030   87.0823   13.1804 O.2     1  UNL1       -0.2691
     19 C          66.6132   93.6323   10.2066 C.2     1  UNL1        0.2839
     20 O          67.6853   92.7206   10.7257 O.2     1  UNL1       -0.2665
     21 N          65.2020   93.4836   10.6927 N.am    1  UNL1       -0.2778
     22 H          64.4984   94.0820   10.3519 H       1  UNL1        0.1553
     23 C          66.4939   96.8553   10.7037 C.3     1  UNL1        0.0345
     24 C          66.8976   96.1741    9.4298 C.ar    1  UNL1        0.0204
     25 C          67.3173   96.8547    8.1607 C.ar    1  UNL1        0.0396
     26 C          67.6315   95.7939    7.1478 C.ar    1  UNL1        0.1795
     27 O          67.4060   94.4577    7.7909 O.2     1  UNL1       -0.4461
     28 C          66.9524   94.6926    9.2013 C.ar    1  UNL1        0.1948
@<TRIPOS>BOND
     1    23    24    1
     2    24    25   ar
     3    25    26   ar
     4    26    27   ar
     5    27    28   ar
     6    28    19    1
     7    19    20    2
     8    19    21   am
     9    21     1    1
    10     1     2   ar
    11     2     3   ar
    12     3     4   ar
    13     4     8    1
    14     8     9   am
    15     9    10    2
    16     9    11    1
    17    11    12   ar
    18    12    13   ar
    19    13    14   ar
    20    14    15   ar
    21    15    16   ar
    22    16    17    1
    23    17    18    2
    24     4     5   ar
    25     5     6    1
    26     5     7   ar
    27    28    24   ar
    28     7     1   ar
    29    17     8   am
    30    16    11   ar
    31    21    22    1
@<TRIPOS>MOLECULE
*****
 28 31 0 0 0
SMALL
GASTEIGER

@<TRIPOS>ATOM
      1 C          64.2274   91.1023   12.6081 C.ar    1  UNL1        0.0515
      2 C          64.8833   90.3768   13.7453 C.ar    1  UNL1        0.0160
      3 C          64.5941   88.9228   13.9738 C.ar    1  UNL1        0.0175
      4 C          63.6489   88.1943   13.0651 C.ar    1  UNL1        0.0718
      5 C          62.9930   88.9197   11.9279 C.ar    1  UNL1        0.0730
      6 CL         62.0477   88.1912   11.0191 Cl      1  UNL1       -0.0809
      7 C          63.2822   90.3738   11.6993 C.ar    1  UNL1        0.0273
      8 N          63.3597   86.7403   13.2937 N.am    1  UNL1       -0.2002
      9 C          63.0575   85.7240   12.2326 C.2     1  UNL1        0.2590
     10 O          62.9915   85.9834   10.7567 O.2     1  UNL1       -0.2691
     11 C          62.8329   84.4029   12.9065 C.ar    1  UNL1        0.0617
     12 C          62.5008   83.0439   12.3656 C.ar    1  UNL1        0.0254
     13 C          62.3320   81.8846   13.3024 C.ar    1  UNL1        0.0990
     14 N          62.4954   82.0843   14.7800 N.ar    1  UNL1       -0.2422
     15 C          62.8276   83.4433   15.3209 C.ar    1  UNL1        0.1035
     16 C          62.9964   84.6026   14.3842 C.ar    1  UNL1        0.0778
     17 C          63.3219   86.0472   14.6234 C.2     1  UNL1        0.2604
     18 O          63.5667   86.6865   15.9581 O.2     1  UNL1       -0.2691
     19 C          65.7910   92.9706   11.7056 C.2     1  UNL1        0.2839
     20 O          66.7762   91.9309   11.2601 O.2     1  UNL1       -0.2665
     21 N          64.5166   92.5563   12.3795 N.am    1  UNL1       -0.2778
     22 H          63.8700   93.2387   12.6719 H       1  UNL1        0.1553
     23 C          67.1253   94.2623    9.0222 C.3     1  UNL1        0.0345
     24 C          66.6936   95.0183   10.2436 C.ar    1  UNL1        0.0204
     25 C          66.7993   96.5009   10.4461 C.ar    1  UNL1        0.0396
     26 C          66.2513   96.8234   11.8046 C.ar    1  UNL1        0.1795
     27 O          65.8069   95.5402   12.4418 O.2     1  UNL1       -0.4461
     28 C          66.0802   94.4246   11.4771 C.ar    1  UNL1        0.1948
@<TRIPOS>BOND
     1    23    24    1
     2    24    25   ar
     3    25    26   ar
     4    26    27   ar
     5    27    28   ar
     6    28    19    1
     7    19    20    2
     8    19    21   am
     9    21     1    1
    10     1     2   ar
    11     2     3   ar
    12     3     4   ar
    13     4     8    1
    14     8     9   am
    15     9    10    2
    16     9    11    1
    17    11    12   ar
    18    12    13   ar
    19    13    14   ar
    20    14    15   ar
    21    15    16   ar
    22    16    17    1
    23    17    18    2
    24     4     5   ar
    25     5     6    1
    26     5     7   ar
    27    28    24   ar
    28     7     1   ar
    29    17     8   am
    30    16    11   ar
    31    21    22    1
@<TRIPOS>MOLECULE
*****
 28 31 0 0 0
SMALL
GASTEIGER

@<TRIPOS>ATOM
      1 C          58.5960   94.4338   -0.3962 C.ar    1  UNL1        0.0515
      2 C          58.3417   95.8691   -0.7497 C.ar    1  UNL1        0.0160
      3 C          57.1588   96.2348   -1.5964 C.ar    1  UNL1        0.0175
      4 C          56.2301   95.1651   -2.0895 C.ar    1  UNL1        0.0718
      5 C          56.4843   93.7298   -1.7360 C.ar    1  UNL1        0.0730
      6 CL         55.5556   92.6600   -2.2291 Cl      1  UNL1       -0.0809
      7 C          57.6673   93.3641   -0.8893 C.ar    1  UNL1        0.0273
      8 N          55.0471   95.5308   -2.9362 N.am    1  UNL1       -0.2002
      9 C          53.6801   95.8894   -2.4335 C.2     1  UNL1        0.2590
     10 O          53.2561   95.9454   -0.9957 O.2     1  UNL1       -0.2691
     11 C          52.8116   96.1823   -3.6208 C.ar    1  UNL1        0.0617
     12 C          51.3720   96.5878   -3.7358 C.ar    1  UNL1        0.0254
     13 C          50.7627   96.8156   -5.0873 C.ar    1  UNL1        0.0990
     14 N          51.5928   96.6379   -6.3239 N.ar    1  UNL1       -0.2422
     15 C          53.0324   96.2324   -6.2090 C.ar    1  UNL1        0.1035
     16 C          53.6417   96.0046   -4.8575 C.ar    1  UNL1        0.0778
     17 C          55.0234   95.6020   -4.4343 C.2     1  UNL1        0.2604
     18 O          56.1784   95.3200   -5.3488 O.2     1  UNL1       -0.2691
     19 C          60.9740   93.4111   -0.1741 C.2     1  UNL1        0.2839
     20 O          60.9860   93.1196   -1.6456 O.2     1  UNL1       -0.2665
     21 N          59.7790   94.0681    0.4505 N.am    1  UNL1       -0.2778
     22 H          59.7711   94.2594    1.4162 H       1  UNL1        0.1553
     23 C          64.0113   94.5510   -0.5273 C.3     1  UNL1        0.0345
     24 C          63.5531   93.5694    0.5102 C.ar    1  UNL1        0.0204
     25 C          64.4105   92.9394    1.5676 C.ar    1  UNL1        0.0396
     26 C          63.5443   92.0260    2.3834 C.ar    1  UNL1        0.1795
     27 O          62.1515   92.0916    1.8302 O.2     1  UNL1       -0.4461
     28 C          62.1569   93.0454    0.6725 C.ar    1  UNL1        0.1948
@<TRIPOS>BOND
     1    23    24    1
     2    24    25   ar
     3    25    26   ar
     4    26    27   ar
     5    27    28   ar
     6    28    19    1
     7    19    20    2
     8    19    21   am
     9    21     1    1
    10     1     2   ar
    11     2     3   ar
    12     3     4   ar
    13     4     8    1
    14     8     9   am
    15     9    10    2
    16     9    11    1
    17    11    12   ar
    18    12    13   ar
    19    13    14   ar
    20    14    15   ar
    21    15    16   ar
    22    16    17    1
    23    17    18    2
    24     4     5   ar
    25     5     6    1
    26     5     7   ar
    27    28    24   ar
    28     7     1   ar
    29    17     8   am
    30    16    11   ar
    31    21    22    1
@<TRIPOS>MOLECULE
*****
 28 31 0 0 0
SMALL
GASTEIGER

@<TRIPOS>ATOM
      1 C          64.3386   86.8003   14.5405 C.ar    1  UNL1        0.0515
      2 C          65.0677   85.5648   14.9785 C.ar    1  UNL1        0.0160
      3 C          64.7952   84.2537   14.3026 C.ar    1  UNL1        0.0175
      4 C          63.7936   84.1782   13.1886 C.ar    1  UNL1        0.0718
      5 C          63.0646   85.4136   12.7505 C.ar    1  UNL1        0.0730
      6 CL         62.0629   85.3381   11.6364 Cl      1  UNL1       -0.0809
      7 C          63.3370   86.7247   13.4265 C.ar    1  UNL1        0.0273
      8 N          63.5212   82.8671   12.5126 N.am    1  UNL1       -0.2002
      9 C          63.6805   82.5798   11.0491 C.2     1  UNL1        0.2590
     10 O          64.1404   83.5531   10.0045 O.2     1  UNL1       -0.2691
     11 C          63.2993   81.1483   10.8135 C.ar    1  UNL1        0.0617
     12 C          63.2608   80.3116    9.5691 C.ar    1  UNL1        0.0254
     13 C          62.8274   78.8776    9.6427 C.ar    1  UNL1        0.0990
     14 N          62.4324   78.2801   10.9607 N.ar    1  UNL1       -0.2422
     15 C          62.4709   79.1168   12.2051 C.ar    1  UNL1        0.1035
     16 C          62.9044   80.5509   12.1314 C.ar    1  UNL1        0.0778
     17 C          63.0415   81.6132   13.1816 C.2     1  UNL1        0.2604
     18 O          62.7500   81.4501   14.6439 O.2     1  UNL1       -0.2691
     19 C          64.4270   89.3957   14.4638 C.2     1  UNL1        0.2839
     20 O          63.9704   89.3690   13.0352 O.2     1  UNL1       -0.2665
     21 N          64.6111   88.1113   15.2164 N.am    1  UNL1       -0.2778
     22 H          64.9108   88.1288   16.1540 H       1  UNL1        0.1553
     23 C          67.0949   91.2349   14.0777 C.3     1  UNL1        0.0345
     24 C          65.9259   91.5521   14.9622 C.ar    1  UNL1        0.0204
     25 C          65.7777   92.7705   15.8247 C.ar    1  UNL1        0.0396
     26 C          64.4599   92.6780   16.5352 C.ar    1  UNL1        0.1795
     27 O          63.7936   91.4026   16.1119 O.2     1  UNL1       -0.4461
     28 C          64.6995   90.7067   15.1398 C.ar    1  UNL1        0.1948
@<TRIPOS>BOND
     1    23    24    1
     2    24    25   ar
     3    25    26   ar
     4    26    27   ar
     5    27    28   ar
     6    28    19    1
     7    19    20    2
     8    19    21   am
     9    21     1    1
    10     1     2   ar
    11     2     3   ar
    12     3     4   ar
    13     4     8    1
    14     8     9   am
    15     9    10    2
    16     9    11    1
    17    11    12   ar
    18    12    13   ar
    19    13    14   ar
    20    14    15   ar
    21    15    16   ar
    22    16    17    1
    23    17    18    2
    24     4     5   ar
    25     5     6    1
    26     5     7   ar
    27    28    24   ar
    28     7     1   ar
    29    17     8   am
    30    16    11   ar
    31    21    22    1
@<TRIPOS>MOLECULE
*****
 28 31 0 0 0
SMALL
GASTEIGER

@<TRIPOS>ATOM
      1 C          58.7681   94.7582   -0.6269 C.ar    1  UNL1        0.0515
      2 C          58.5042   96.1550   -1.1058 C.ar    1  UNL1        0.0160
      3 C          57.2554   96.4594   -1.8790 C.ar    1  UNL1        0.0175
      4 C          56.2705   95.3670   -2.1733 C.ar    1  UNL1        0.0718
      5 C          56.5344   93.9702   -1.6945 C.ar    1  UNL1        0.0730
      6 CL         55.5495   92.8777   -1.9888 Cl      1  UNL1       -0.0809
      7 C          57.7833   93.6659   -0.9213 C.ar    1  UNL1        0.0273
      8 N          55.0217   95.6713   -2.9465 N.am    1  UNL1       -0.2002
      9 C          54.8999   95.7211   -4.4407 C.2     1  UNL1        0.2590
     10 O          56.0056   95.4752   -5.4241 O.2     1  UNL1       -0.2691
     11 C          53.4783   96.0599   -4.7790 C.ar    1  UNL1        0.0617
     12 C          52.7753   96.2436   -6.0912 C.ar    1  UNL1        0.0254
     13 C          51.3154   96.5870   -6.1181 C.ar    1  UNL1        0.0990
     14 N          50.5586   96.7467   -4.8329 N.ar    1  UNL1       -0.2422
     15 C          51.2617   96.5630   -3.5208 C.ar    1  UNL1        0.1035
     16 C          52.7215   96.2196   -3.4938 C.ar    1  UNL1        0.0778
     17 C          53.6754   95.9794   -2.3613 C.2     1  UNL1        0.2604
     18 O          53.3415   96.0372   -0.9001 O.2     1  UNL1       -0.2691
     19 C          61.1866   93.8131   -0.5401 C.2     1  UNL1        0.2839
     20 O          61.1075   93.4766   -1.9998 O.2     1  UNL1       -0.2665
     21 N          60.0169   94.4539    0.1463 N.am    1  UNL1       -0.2778
     22 H          60.0689   94.6747    1.1043 H       1  UNL1        0.1553
     23 C          61.3213   92.6624    2.5107 C.3     1  UNL1        0.0345
     24 C          62.4973   92.9798    1.6354 C.ar    1  UNL1        0.0204
     25 C          63.9417   92.8240    2.0087 C.ar    1  UNL1        0.0396
     26 C          64.7726   93.2566    0.8371 C.ar    1  UNL1        0.1795
     27 O          63.8416   93.6798   -0.2603 O.2     1  UNL1       -0.4461
     28 C          62.4354   93.5087    0.2331 C.ar    1  UNL1        0.1948
@<TRIPOS>BOND
     1    23    24    1
     2    24    25   ar
     3    25    26   ar
     4    26    27   ar
     5    27    28   ar
     6    28    19    1
     7    19    20    2
     8    19    21   am
     9    21     1    1
    10     1     2   ar
    11     2     3   ar
    12     3     4   ar
    13     4     8    1
    14     8     9   am
    15     9    10    2
    16     9    11    1
    17    11    12   ar
    18    12    13   ar
    19    13    14   ar
    20    14    15   ar
    21    15    16   ar
    22    16    17    1
    23    17    18    2
    24     4     5   ar
    25     5     6    1
    26     5     7   ar
    27    28    24   ar
    28     7     1   ar
    29    17     8   am
    30    16    11   ar
    31    21    22    1
@<TRIPOS>MOLECULE
*****
 28 31 0 0 0
SMALL
GASTEIGER

@<TRIPOS>ATOM
      1 C          55.6399   94.8811   -1.6857 C.ar    1  UNL1        0.0515
      2 C          56.1463   93.4692   -1.6901 C.ar    1  UNL1        0.0160
      3 C          57.5457   93.1729   -1.2388 C.ar    1  UNL1        0.0175
      4 C          58.4388   94.2885   -0.7831 C.ar    1  UNL1        0.0718
      5 C          57.9324   95.7004   -0.7787 C.ar    1  UNL1        0.0730
      6 CL         58.8255   96.8161   -0.3229 Cl      1  UNL1       -0.0809
      7 C          56.5330   95.9967   -1.2300 C.ar    1  UNL1        0.0273
      8 N          59.8383   93.9922   -0.3318 N.am    1  UNL1       -0.2002
      9 C          60.2335   93.4192    0.9969 C.2     1  UNL1        0.2590
     10 O          59.2986   93.0419    2.1076 O.2     1  UNL1       -0.2691
     11 C          61.7278   93.2898    1.0200 C.ar    1  UNL1        0.0617
     12 C          62.6756   92.7867    2.0681 C.ar    1  UNL1        0.0254
     13 C          64.1516   92.7766    1.8017 C.ar    1  UNL1        0.0990
     14 N          64.6799   93.2697    0.4872 N.ar    1  UNL1       -0.2422
     15 C          63.7321   93.7728   -0.5608 C.ar    1  UNL1        0.1035
     16 C          62.2560   93.7828   -0.2945 C.ar    1  UNL1        0.0778
     17 C          61.0883   94.2170   -1.1299 C.2     1  UNL1        0.2604
     18 O          61.1583   94.7774   -2.5195 O.2     1  UNL1       -0.2691
     19 C          54.0077   96.0393   -3.3424 C.2     1  UNL1        0.2839
     20 O          55.1745   96.6051   -4.0964 O.2     1  UNL1       -0.2665
     21 N          54.2404   95.1774   -2.1370 N.am    1  UNL1       -0.2778
     22 H          53.4746   94.8061   -1.6422 H       1  UNL1        0.1553
     23 C          52.9818   96.1913   -6.4365 C.3     1  UNL1        0.0345
     24 C          52.1367   96.4054   -5.2160 C.ar    1  UNL1        0.0204
     25 C          50.6716   96.7271   -5.2032 C.ar    1  UNL1        0.0396
     26 C          50.2377   96.8560   -3.7732 C.ar    1  UNL1        0.1795
     27 O          51.4346   96.6141   -2.9020 O.2     1  UNL1       -0.4461
     28 C          52.6082   96.3356   -3.7937 C.ar    1  UNL1        0.1948
@<TRIPOS>BOND
     1    23    24    1
     2    24    25   ar
     3    25    26   ar
     4    26    27   ar
     5    27    28   ar
     6    28    19    1
     7    19    20    2
     8    19    21   am
     9    21     1    1
    10     1     2   ar
    11     2     3   ar
    12     3     4   ar
    13     4     8    1
    14     8     9   am
    15     9    10    2
    16     9    11    1
    17    11    12   ar
    18    12    13   ar
    19    13    14   ar
    20    14    15   ar
    21    15    16   ar
    22    16    17    1
    23    17    18    2
    24     4     5   ar
    25     5     6    1
    26     5     7   ar
    27    28    24   ar
    28     7     1   ar
    29    17     8   am
    30    16    11   ar
    31    21    22    1
@<TRIPOS>MOLECULE
*****
 28 31 0 0 0
SMALL
GASTEIGER

@<TRIPOS>ATOM
      1 C          55.7542   94.9546   -1.7012 C.ar    1  UNL1        0.0515
      2 C          56.2271   93.5320   -1.6534 C.ar    1  UNL1        0.0160
      3 C          57.6078   93.2167   -1.1593 C.ar    1  UNL1        0.0175
      4 C          58.5158   94.3241   -0.7131 C.ar    1  UNL1        0.0718
      5 C          58.0429   95.7468   -0.7608 C.ar    1  UNL1        0.0730
      6 CL         58.9509   96.8543   -0.3145 Cl      1  UNL1       -0.0809
      7 C          56.6622   96.0621   -1.2549 C.ar    1  UNL1        0.0273
      8 N          59.8965   94.0089   -0.2190 N.am    1  UNL1       -0.2002
      9 C          61.1762   94.2534   -0.9624 C.2     1  UNL1        0.2590
     10 O          61.2998   94.8563   -2.3304 O.2     1  UNL1       -0.2691
     11 C          62.3106   93.7894   -0.0977 C.ar    1  UNL1        0.0617
     12 C          63.7957   93.7821   -0.3087 C.ar    1  UNL1        0.0254
     13 C          64.7021   93.2434    0.7580 C.ar    1  UNL1        0.0990
     14 N          64.1236   92.7120    2.0359 N.ar    1  UNL1       -0.2422
     15 C          62.6386   92.7193    2.2470 C.ar    1  UNL1        0.1035
     16 C          61.7321   93.2580    1.1802 C.ar    1  UNL1        0.0778
     17 C          60.2401   93.3937    1.1052 C.2     1  UNL1        0.2604
     18 O          59.2632   92.9857    2.1678 O.2     1  UNL1       -0.2691
     19 C          54.1753   95.7846   -3.5901 C.2     1  UNL1        0.2839
     20 O          55.3580   95.9841   -4.4910 O.2     1  UNL1       -0.2665
     21 N          54.3735   95.2699   -2.1952 N.am    1  UNL1       -0.2778
     22 H          53.5973   95.1390   -1.6039 H       1  UNL1        0.1553
     23 C          53.3187   96.2885   -6.6984 C.3     1  UNL1        0.0345
     24 C          52.4008   96.3315   -5.5130 C.ar    1  UNL1        0.0204
     25 C          50.9280   96.6136   -5.5480 C.ar    1  UNL1        0.0396
     26 C          50.4115   96.5564   -4.1409 C.ar    1  UNL1        0.1795
     27 O          51.5651   96.2389   -3.2362 O.2     1  UNL1       -0.4461
     28 C          52.7946   96.0999   -4.0841 C.ar    1  UNL1        0.1948
@<TRIPOS>BOND
     1    23    24    1
     2    24    25   ar
     3    25    26   ar
     4    26    27   ar
     5    27    28   ar
     6    28    19    1
     7    19    20    2
     8    19    21   am
     9    21     1    1
    10     1     2   ar
    11     2     3   ar
    12     3     4   ar
    13     4     8    1
    14     8     9   am
    15     9    10    2
    16     9    11    1
    17    11    12   ar
    18    12    13   ar
    19    13    14   ar
    20    14    15   ar
    21    15    16   ar
    22    16    17    1
    23    17    18    2
    24     4     5   ar
    25     5     6    1
    26     5     7   ar
    27    28    24   ar
    28     7     1   ar
    29    17     8   am
    30    16    11   ar
    31    21    22    1
@<TRIPOS>MOLECULE
*****
 28 31 0 0 0
SMALL
GASTEIGER

@<TRIPOS>ATOM
      1 C          64.4309   91.1570   12.9066 C.ar    1  UNL1        0.0515
      2 C          65.0740   90.3419   13.9892 C.ar    1  UNL1        0.0160
      3 C          64.7327   88.8887   14.1369 C.ar    1  UNL1        0.0175
      4 C          63.7483   88.2507   13.2021 C.ar    1  UNL1        0.0718
      5 C          63.1053   89.0658   12.1195 C.ar    1  UNL1        0.0730
      6 CL         62.1210   88.4278   11.1846 Cl      1  UNL1       -0.0809
      7 C          63.4466   90.5190   11.9717 C.ar    1  UNL1        0.0273
      8 N          63.4071   86.7975   13.3498 N.am    1  UNL1       -0.2002
      9 C          63.3322   86.0362   14.6401 C.2     1  UNL1        0.2590
     10 O          63.5854   86.5943   16.0091 O.2     1  UNL1       -0.2691
     11 C          62.9595   84.6187   14.3210 C.ar    1  UNL1        0.0617
     12 C          62.7417   83.4176   15.1927 C.ar    1  UNL1        0.0254
     13 C          62.3684   82.1018   14.5769 C.ar    1  UNL1        0.0990
     14 N          62.2130   81.9871   13.0893 N.ar    1  UNL1       -0.2422
     15 C          62.4309   83.1881   12.2176 C.ar    1  UNL1        0.1035
     16 C          62.8041   84.5039   12.8334 C.ar    1  UNL1        0.0778
     17 C          63.0807   85.8505   12.2333 C.2     1  UNL1        0.2604
     18 O          63.0384   86.1904   10.7729 O.2     1  UNL1       -0.2691
     19 C          65.7474   93.0484   11.7067 C.2     1  UNL1        0.2839
     20 O          66.3813   92.0333   10.8023 O.2     1  UNL1       -0.2665
     21 N          64.7722   92.6102   12.7588 N.am    1  UNL1       -0.2778
     22 H          64.3562   93.2764   13.3524 H       1  UNL1        0.1553
     23 C          66.8656   94.4907    9.0014 C.3     1  UNL1        0.0345
     24 C          66.6027   95.1645   10.3154 C.ar    1  UNL1        0.0204
     25 C          66.8076   96.6196   10.6167 C.ar    1  UNL1        0.0396
     26 C          66.4202   96.8559   12.0465 C.ar    1  UNL1        0.1795
     27 O          65.9760   95.5469   12.6288 O.2     1  UNL1       -0.4461
     28 C          66.0887   94.5015   11.5590 C.ar    1  UNL1        0.1948
@<TRIPOS>BOND
     1    23    24    1
     2    24    25   ar
     3    25    26   ar
     4    26    27   ar
     5    27    28   ar
     6    28    19    1
     7    19    20    2
     8    19    21   am
     9    21     1    1
    10     1     2   ar
    11     2     3   ar
    12     3     4   ar
    13     4     8    1
    14     8     9   am
    15     9    10    2
    16     9    11    1
    17    11    12   ar
    18    12    13   ar
    19    13    14   ar
    20    14    15   ar
    21    15    16   ar
    22    16    17    1
    23    17    18    2
    24     4     5   ar
    25     5     6    1
    26     5     7   ar
    27    28    24   ar
    28     7     1   ar
    29    17     8   am
    30    16    11   ar
    31    21    22    1
