@<TRIPOS>MOLECULE
*****
 40 43 0 0 0
SMALL
GASTEIGER

@<TRIPOS>ATOM
      1 N          63.2455   90.2623   12.0389 N.am    1  UNL1       -0.2438
      2 C          63.9771   90.1229   13.3409 C.3     1  UNL1        0.1009
      3 C          65.1700   90.9861   13.6271 C.3     1  UNL1        0.0661
      4 C          65.6312   91.9887   12.6112 C.3     1  UNL1        0.1578
      5 O          64.8996   92.1281   11.3092 O.3     1  UNL1       -0.4375
      6 C          63.7067   91.2649   11.0230 C.2     1  UNL1        0.4051
      7 O          62.9751   91.4043    9.7210 O.2     1  UNL1       -0.2262
      8 C          66.6454   92.2262   13.6907 C.ar    1  UNL1        0.0139
      9 C          68.0964   91.9491   13.4305 C.ar    1  UNL1        0.0014
     10 C          69.1106   92.1866   14.5100 C.ar    1  UNL1        0.0294
     11 C          68.6736   92.7011   15.8495 C.ar    1  UNL1        0.1401
     12 F          69.6877   92.9385   16.9290 F       1  UNL1       -0.2042
     13 C          67.2225   92.9781   16.1097 C.ar    1  UNL1        0.0294
     14 C          66.2084   92.7407   15.0302 C.ar    1  UNL1        0.0014
     15 C          60.7172   90.0288   11.4885 C.3     1  UNL1        0.0265
     16 C          62.0526   89.3990   11.7527 C.3     1  UNL1        0.1011
     17 C          62.1953   87.9059   11.7308 C.ar    1  UNL1       -0.0042
     18 C          63.1392   87.2287   12.6796 C.ar    1  UNL1       -0.0027
     19 C          63.2818   85.7357   12.6576 C.ar    1  UNL1       -0.0002
     20 C          62.4805   84.9199   11.6869 C.ar    1  UNL1        0.0021
     21 C          61.5365   85.5972   10.7381 C.ar    1  UNL1       -0.0002
     22 C          61.3939   87.0902   10.7601 C.ar    1  UNL1       -0.0027
     23 C          62.6231   83.4268   11.6650 C.ar    1  UNL1        0.0276
     24 C          62.2092   82.6163   12.8573 C.ar    1  UNL1        0.0045
     25 C          62.3518   81.1232   12.8354 C.ar    1  UNL1        0.0298
     26 C          62.9084   80.4407   11.6211 C.ar    1  UNL1        0.1424
     27 F          63.0510   78.9477   11.5991 F       1  UNL1       -0.2041
     28 C          63.3223   81.2513   10.4287 C.ar    1  UNL1        0.0592
     29 C          63.1796   82.7443   10.4507 C.ar    1  UNL1        0.1423
     30 F          63.5935   83.5550    9.2583 F       1  UNL1       -0.2041
     31 C          66.4447   93.0738   11.9703 C.3     1  UNL1        0.0463
     32 C          65.7605   94.2415   11.3234 C.3     1  UNL1        0.0252
     33 C          66.3313   95.6209   11.4704 C.3     1  UNL1        0.0910
     34 N          66.5840   96.4614   10.2540 N.am    1  UNL1       -0.2891
     35 C          67.5819   96.0140    9.2273 C.2     1  UNL1        0.2976
     36 N          67.8346   96.8545    8.0109 N.am    1  UNL1       -0.3133
     37 O          68.3270   94.7261    9.4171 O.2     1  UNL1       -0.2531
     38 H          66.0949   97.3067   10.1295 H       1  UNL1        0.1510
     39 H          67.3455   97.6998    7.8864 H       1  UNL1        0.1465
     40 H          68.4895   96.5608    7.3371 H       1  UNL1        0.1465
@<TRIPOS>BOND
     1    16    15    1
     2    16    17    1
     3    17    18   ar
     4    18    19   ar
     5    19    20   ar
     6    20    23    1
     7    23    24   ar
     8    24    25   ar
     9    25    26   ar
    10    26    27    1
    11    26    28   ar
    12    28    29   ar
    13    29    30    1
    14    20    21   ar
    15    21    22   ar
    16    16     1    1
    17     1     2    1
    18     2     3    1
    19     3     4    1
    20     4    31    1
    21    31    32    1
    22    32    33    1
    23    33    34    1
    24    34    35   am
    25    35    36   am
    26    35    37    2
    27     4     8    1
    28     8     9   ar
    29     9    10   ar
    30    10    11   ar
    31    11    12    1
    32    11    13   ar
    33    13    14   ar
    34     4     5    1
    35     5     6    1
    36     6     7    2
    37    22    17   ar
    38     6     1   am
    39    29    23   ar
    40    14     8   ar
    41    34    38    1
    42    36    39    1
    43    36    40    1
@<TRIPOS>MOLECULE
*****
 40 43 0 0 0
SMALL
GASTEIGER

@<TRIPOS>ATOM
      1 N          62.9309   90.7684   11.5395 N.am    1  UNL1       -0.2438
      2 C          63.3342   91.5125   10.3011 C.3     1  UNL1        0.1009
      3 C          64.5123   92.4404   10.3339 C.3     1  UNL1        0.0661
      4 C          65.2870   92.6244   11.6050 C.3     1  UNL1        0.1578
      5 O          64.8838   91.8803   12.8435 O.3     1  UNL1       -0.4375
      6 C          63.7057   90.9523   12.8108 C.2     1  UNL1        0.4051
      7 O          63.3024   90.2083   14.0492 O.2     1  UNL1       -0.2262
      8 C          66.0516   93.5431   10.6987 C.ar    1  UNL1        0.0139
      9 C          65.7754   95.0173   10.7188 C.ar    1  UNL1        0.0014
     10 C          66.5400   95.9361    9.8125 C.ar    1  UNL1        0.0294
     11 C          67.5808   95.3805    8.8862 C.ar    1  UNL1        0.1401
     12 F          68.3454   96.2993    7.9799 F       1  UNL1       -0.2042
     13 C          67.8571   93.9063    8.8661 C.ar    1  UNL1        0.0294
     14 C          67.0924   92.9876    9.7724 C.ar    1  UNL1        0.0014
     15 C          60.3612   90.3969   11.4489 C.3     1  UNL1        0.0265
     16 C          61.7529   89.8405   11.5068 C.3     1  UNL1        0.1011
     17 C          61.9666   88.3559   11.5320 C.ar    1  UNL1       -0.0042
     18 C          63.0408   87.7674   12.3978 C.ar    1  UNL1       -0.0027
     19 C          63.2545   86.2830   12.4230 C.ar    1  UNL1       -0.0002
     20 C          62.3940   85.3870   11.5823 C.ar    1  UNL1        0.0021
     21 C          61.3198   85.9755   10.7164 C.ar    1  UNL1       -0.0002
     22 C          61.1061   87.4600   10.6913 C.ar    1  UNL1       -0.0027
     23 C          62.6077   83.9025   11.6075 C.ar    1  UNL1        0.0276
     24 C          62.1610   83.1004   12.7937 C.ar    1  UNL1        0.0045
     25 C          62.3747   81.6159   12.8188 C.ar    1  UNL1        0.0298
     26 C          63.0351   80.9335   11.6578 C.ar    1  UNL1        0.1424
     27 F          63.2489   79.4490   11.6829 F       1  UNL1       -0.2041
     28 C          63.4819   81.7356   10.4715 C.ar    1  UNL1        0.0592
     29 C          63.2682   83.2200   10.4464 C.ar    1  UNL1        0.1423
     30 F          63.7149   84.0222    9.2601 F       1  UNL1       -0.2041
     31 C          66.3274   93.1274   12.5615 C.3     1  UNL1        0.0463
     32 C          67.5230   92.2805   12.8826 C.3     1  UNL1        0.0252
     33 C          67.5957   91.5510   14.1914 C.3     1  UNL1        0.0910
     34 N          66.4454   91.6173   15.1517 N.am    1  UNL1       -0.2891
     35 C          66.3835   92.7139   16.1734 C.2     1  UNL1        0.2976
     36 N          65.2333   92.7802   17.1338 N.am    1  UNL1       -0.3133
     37 O          67.4720   93.7441   16.2346 O.2     1  UNL1       -0.2531
     38 H          65.7310   90.9411   15.1116 H       1  UNL1        0.1510
     39 H          64.5189   92.1040   17.0936 H       1  UNL1        0.1465
     40 H          65.1927   93.4999   17.8043 H       1  UNL1        0.1465
@<TRIPOS>BOND
     1    16    15    1
     2    16    17    1
     3    17    18   ar
     4    18    19   ar
     5    19    20   ar
     6    20    23    1
     7    23    24   ar
     8    24    25   ar
     9    25    26   ar
    10    26    27    1
    11    26    28   ar
    12    28    29   ar
    13    29    30    1
    14    20    21   ar
    15    21    22   ar
    16    16     1    1
    17     1     2    1
    18     2     3    1
    19     3     4    1
    20     4    31    1
    21    31    32    1
    22    32    33    1
    23    33    34    1
    24    34    35   am
    25    35    36   am
    26    35    37    2
    27     4     8    1
    28     8     9   ar
    29     9    10   ar
    30    10    11   ar
    31    11    12    1
    32    11    13   ar
    33    13    14   ar
    34     4     5    1
    35     5     6    1
    36     6     7    2
    37    22    17   ar
    38     6     1   am
    39    29    23   ar
    40    14     8   ar
    41    34    38    1
    42    36    39    1
    43    36    40    1
@<TRIPOS>MOLECULE
*****
 40 43 0 0 0
SMALL
GASTEIGER

@<TRIPOS>ATOM
      1 N          62.9512   90.8245   11.4323 N.am    1  UNL1       -0.2438
      2 C          63.3500   91.5934   10.2077 C.3     1  UNL1        0.1009
      3 C          64.5244   92.5254   10.2567 C.3     1  UNL1        0.0661
      4 C          65.2999   92.6883   11.5303 C.3     1  UNL1        0.1578
      5 O          64.9011   91.9194   12.7549 O.3     1  UNL1       -0.4375
      6 C          63.7267   90.9875   12.7059 C.2     1  UNL1        0.4051
      7 O          63.3278   90.2185   13.9305 O.2     1  UNL1       -0.2262
      8 C          66.0598   93.6271   10.6407 C.ar    1  UNL1        0.0139
      9 C          67.1106   93.0949    9.7120 C.ar    1  UNL1        0.0014
     10 C          67.8705   94.0337    8.8224 C.ar    1  UNL1        0.0294
     11 C          67.5794   95.5046    8.8616 C.ar    1  UNL1        0.1401
     12 F          68.3393   96.4434    7.9720 F       1  UNL1       -0.2042
     13 C          66.5286   96.0369    9.7902 C.ar    1  UNL1        0.0294
     14 C          65.7687   95.0981   10.6798 C.ar    1  UNL1        0.0014
     15 C          60.3952   90.4375   11.1730 C.3     1  UNL1        0.0265
     16 C          61.7768   89.8926   11.3833 C.3     1  UNL1        0.1011
     17 C          61.9841   88.4157   11.5446 C.ar    1  UNL1       -0.0042
     18 C          61.0833   87.4499   10.8335 C.ar    1  UNL1       -0.0027
     19 C          61.2906   85.9731   10.9949 C.ar    1  UNL1       -0.0002
     20 C          62.3987   85.4621   11.8673 C.ar    1  UNL1        0.0021
     21 C          63.2994   86.4280   12.5783 C.ar    1  UNL1       -0.0002
     22 C          63.0922   87.9048   12.4170 C.ar    1  UNL1       -0.0027
     23 C          62.6059   83.9853   12.0286 C.ar    1  UNL1        0.0276
     24 C          63.0518   83.1584   10.8592 C.ar    1  UNL1        0.0045
     25 C          63.2591   81.6815   11.0205 C.ar    1  UNL1        0.0298
     26 C          63.0204   81.0316   12.3512 C.ar    1  UNL1        0.1424
     27 F          63.2277   79.5548   12.5125 F       1  UNL1       -0.2041
     28 C          62.5746   81.8586   13.5206 C.ar    1  UNL1        0.0592
     29 C          62.3673   83.3354   13.3592 C.ar    1  UNL1        0.1423
     30 F          61.9214   84.1624   14.5286 F       1  UNL1       -0.2041
     31 C          66.3393   93.1773   12.4949 C.3     1  UNL1        0.0463
     32 C          67.5430   92.3331   12.7922 C.3     1  UNL1        0.0252
     33 C          67.6500   91.6153   14.1049 C.3     1  UNL1        0.0910
     34 N          66.5018   91.6415   15.0698 N.am    1  UNL1       -0.2891
     35 C          66.4322   92.7064   16.1239 C.2     1  UNL1        0.2976
     36 N          65.2841   92.7327   17.0888 N.am    1  UNL1       -0.3133
     37 O          67.5107   93.7451   16.2131 O.2     1  UNL1       -0.2531
     38 H          65.7940   90.9598   15.0112 H       1  UNL1        0.1510
     39 H          64.5762   92.0510   17.0302 H       1  UNL1        0.1465
     40 H          65.2384   93.4316   17.7806 H       1  UNL1        0.1465
@<TRIPOS>BOND
     1    16    15    1
     2    16    17    1
     3    17    18   ar
     4    18    19   ar
     5    19    20   ar
     6    20    23    1
     7    23    24   ar
     8    24    25   ar
     9    25    26   ar
    10    26    27    1
    11    26    28   ar
    12    28    29   ar
    13    29    30    1
    14    20    21   ar
    15    21    22   ar
    16    16     1    1
    17     1     2    1
    18     2     3    1
    19     3     4    1
    20     4    31    1
    21    31    32    1
    22    32    33    1
    23    33    34    1
    24    34    35   am
    25    35    36   am
    26    35    37    2
    27     4     8    1
    28     8     9   ar
    29     9    10   ar
    30    10    11   ar
    31    11    12    1
    32    11    13   ar
    33    13    14   ar
    34     4     5    1
    35     5     6    1
    36     6     7    2
    37    22    17   ar
    38     6     1   am
    39    29    23   ar
    40    14     8   ar
    41    34    38    1
    42    36    39    1
    43    36    40    1
@<TRIPOS>MOLECULE
*****
 40 43 0 0 0
SMALL
GASTEIGER

@<TRIPOS>ATOM
      1 N          63.7464   88.3982   13.6931 N.am    1  UNL1       -0.2438
      2 C          64.2495   87.1706   14.3928 C.3     1  UNL1        0.1009
      3 C          63.8748   85.8103   13.8835 C.3     1  UNL1        0.0661
      4 C          62.9971   85.6777   12.6744 C.3     1  UNL1        0.1578
      5 O          62.4939   86.9054   11.9746 O.3     1  UNL1       -0.4375
      6 C          62.8686   88.2657   12.4839 C.2     1  UNL1        0.4051
      7 O          62.3655   89.4933   11.7841 O.2     1  UNL1       -0.2262
      8 C          63.2226   84.2293   12.9927 C.ar    1  UNL1        0.0139
      9 C          64.2024   83.4282   12.1875 C.ar    1  UNL1        0.0014
     10 C          64.4278   81.9798   12.5058 C.ar    1  UNL1        0.0294
     11 C          63.6735   81.3326   13.6292 C.ar    1  UNL1        0.1401
     12 F          63.8990   79.8841   13.9475 F       1  UNL1       -0.2042
     13 C          62.6937   82.1336   14.4344 C.ar    1  UNL1        0.0294
     14 C          62.4682   83.5821   14.1161 C.ar    1  UNL1        0.0014
     15 C          63.9022   90.1056   15.6451 C.3     1  UNL1        0.0265
     16 C          64.1210   89.7585   14.2024 C.3     1  UNL1        0.1011
     17 C          64.7145   90.7716   13.2689 C.ar    1  UNL1       -0.0042
     18 C          66.0146   91.4365   13.6118 C.ar    1  UNL1       -0.0027
     19 C          66.6080   92.4496   12.6783 C.ar    1  UNL1       -0.0002
     20 C          65.9013   92.7978   11.4018 C.ar    1  UNL1        0.0021
     21 C          64.6013   92.1328   11.0589 C.ar    1  UNL1       -0.0002
     22 C          64.0079   91.1198   11.9924 C.ar    1  UNL1       -0.0027
     23 C          66.4948   93.8109   10.4683 C.ar    1  UNL1        0.0276
     24 C          66.0854   95.2506   10.5654 C.ar    1  UNL1        0.0045
     25 C          66.6788   96.2638    9.6319 C.ar    1  UNL1        0.0298
     26 C          67.6818   95.8371    8.6013 C.ar    1  UNL1        0.1424
     27 F          68.2752   96.8502    7.6678 F       1  UNL1       -0.2041
     28 C          68.0912   94.3973    8.5042 C.ar    1  UNL1        0.0592
     29 C          67.4977   93.3842    9.4377 C.ar    1  UNL1        0.1423
     30 F          67.9072   91.9444    9.3407 F       1  UNL1       -0.2041
     31 C          62.1976   85.0421   11.5758 C.3     1  UNL1        0.0463
     32 C          62.5027   85.3647   10.1431 C.3     1  UNL1        0.0252
     33 C          61.4383   85.9497    9.2629 C.3     1  UNL1        0.0910
     34 N          61.3188   87.4379    9.1185 N.am    1  UNL1       -0.2891
     35 C          60.0779   88.0366    8.5251 C.2     1  UNL1        0.2976
     36 N          59.9583   89.5248    8.3807 N.am    1  UNL1       -0.3133
     37 O          58.9568   87.1470    8.0762 O.2     1  UNL1       -0.2531
     38 H          62.0546   88.0218    9.4132 H       1  UNL1        0.1510
     39 H          60.6942   90.1087    8.6754 H       1  UNL1        0.1465
     40 H          59.1440   89.9177    7.9913 H       1  UNL1        0.1465
@<TRIPOS>BOND
     1    16    15    1
     2    16    17    1
     3    17    18   ar
     4    18    19   ar
     5    19    20   ar
     6    20    23    1
     7    23    24   ar
     8    24    25   ar
     9    25    26   ar
    10    26    27    1
    11    26    28   ar
    12    28    29   ar
    13    29    30    1
    14    20    21   ar
    15    21    22   ar
    16    16     1    1
    17     1     2    1
    18     2     3    1
    19     3     4    1
    20     4    31    1
    21    31    32    1
    22    32    33    1
    23    33    34    1
    24    34    35   am
    25    35    36   am
    26    35    37    2
    27     4     8    1
    28     8     9   ar
    29     9    10   ar
    30    10    11   ar
    31    11    12    1
    32    11    13   ar
    33    13    14   ar
    34     4     5    1
    35     5     6    1
    36     6     7    2
    37    22    17   ar
    38     6     1   am
    39    29    23   ar
    40    14     8   ar
    41    34    38    1
    42    36    39    1
    43    36    40    1
@<TRIPOS>MOLECULE
*****
 40 43 0 0 0
SMALL
GASTEIGER

@<TRIPOS>ATOM
      1 N          63.2961   90.3404   11.9285 N.am    1  UNL1       -0.2438
      2 C          64.0115   90.1032   13.2254 C.3     1  UNL1        0.1009
      3 C          65.1669   90.9766   13.6153 C.3     1  UNL1        0.0661
      4 C          65.6071   92.0873   12.7083 C.3     1  UNL1        0.1578
      5 O          64.8917   92.3245   11.4113 O.3     1  UNL1       -0.4375
      6 C          63.7363   91.4511   11.0214 C.2     1  UNL1        0.4051
      7 O          63.0209   91.6883    9.7245 O.2     1  UNL1       -0.2262
      8 C          66.5944   92.2561   13.8249 C.ar    1  UNL1        0.0139
      9 C          66.1194   92.6448   15.1936 C.ar    1  UNL1        0.0014
     10 C          67.1067   92.8136   16.3102 C.ar    1  UNL1        0.0294
     11 C          68.5689   92.5938   16.0580 C.ar    1  UNL1        0.1401
     12 F          69.5562   92.7627   17.1746 F       1  UNL1       -0.2042
     13 C          69.0439   92.2052   14.6893 C.ar    1  UNL1        0.0294
     14 C          68.0566   92.0363   13.5727 C.ar    1  UNL1        0.0014
     15 C          60.8698   90.0848   11.0354 C.3     1  UNL1        0.0265
     16 C          62.1406   89.4670   11.5386 C.3     1  UNL1        0.1011
     17 C          62.2561   87.9757   11.6519 C.ar    1  UNL1       -0.0042
     18 C          61.4625   87.0904   10.7373 C.ar    1  UNL1       -0.0027
     19 C          61.5779   85.5992   10.8506 C.ar    1  UNL1       -0.0002
     20 C          62.4870   84.9932   11.8785 C.ar    1  UNL1        0.0021
     21 C          63.2806   85.8785   12.7930 C.ar    1  UNL1       -0.0002
     22 C          63.1651   87.3697   12.6797 C.ar    1  UNL1       -0.0027
     23 C          62.6024   83.5019   11.9918 C.ar    1  UNL1        0.0276
     24 C          62.9946   82.6870   10.7951 C.ar    1  UNL1        0.0045
     25 C          63.1100   81.1957   10.9084 C.ar    1  UNL1        0.0298
     26 C          62.8333   80.5194   12.2183 C.ar    1  UNL1        0.1424
     27 F          62.9487   79.0282   12.3317 F       1  UNL1       -0.2041
     28 C          62.4411   81.3344   13.4150 C.ar    1  UNL1        0.0592
     29 C          62.3257   82.8256   13.3017 C.ar    1  UNL1        0.1423
     30 F          61.9335   83.6407   14.4984 F       1  UNL1       -0.2041
     31 C          66.3901   93.2566   12.1890 C.3     1  UNL1        0.0463
     32 C          65.9248   93.9863   10.9639 C.3     1  UNL1        0.0252
     33 C          66.9212   94.6654   10.0716 C.3     1  UNL1        0.0910
     34 N          67.5211   93.9221    8.9151 N.am    1  UNL1       -0.2891
     35 C          68.4929   92.8067    9.1633 C.2     1  UNL1        0.2976
     36 N          69.0928   92.0635    8.0068 N.am    1  UNL1       -0.3133
     37 O          68.8647   92.4347   10.5680 O.2     1  UNL1       -0.2531
     38 H          67.2770   94.1664    7.9931 H       1  UNL1        0.1510
     39 H          68.8487   92.3076    7.0848 H       1  UNL1        0.1465
     40 H          69.7306   91.3314    8.1697 H       1  UNL1        0.1465
@<TRIPOS>BOND
     1    16    15    1
     2    16    17    1
     3    17    18   ar
     4    18    19   ar
     5    19    20   ar
     6    20    23    1
     7    23    24   ar
     8    24    25   ar
     9    25    26   ar
    10    26    27    1
    11    26    28   ar
    12    28    29   ar
    13    29    30    1
    14    20    21   ar
    15    21    22   ar
    16    16     1    1
    17     1     2    1
    18     2     3    1
    19     3     4    1
    20     4    31    1
    21    31    32    1
    22    32    33    1
    23    33    34    1
    24    34    35   am
    25    35    36   am
    26    35    37    2
    27     4     8    1
    28     8     9   ar
    29     9    10   ar
    30    10    11   ar
    31    11    12    1
    32    11    13   ar
    33    13    14   ar
    34     4     5    1
    35     5     6    1
    36     6     7    2
    37    22    17   ar
    38     6     1   am
    39    29    23   ar
    40    14     8   ar
    41    34    38    1
    42    36    39    1
    43    36    40    1
@<TRIPOS>MOLECULE
*****
 40 43 0 0 0
SMALL
GASTEIGER

@<TRIPOS>ATOM
      1 N          62.5354   87.7919   12.3042 N.am    1  UNL1       -0.2438
      2 C          62.1029   86.7546   11.3109 C.3     1  UNL1        0.1009
      3 C          62.6124   85.3484   11.4249 C.3     1  UNL1        0.0661
      4 C          63.5545   84.9796   12.5323 C.3     1  UNL1        0.1578
      5 O          63.9870   86.0169   13.5258 O.3     1  UNL1       -0.4375
      6 C          63.4775   87.4231   13.4117 C.2     1  UNL1        0.4051
      7 O          63.9100   88.4605   14.4051 O.2     1  UNL1       -0.2262
      8 C          63.4347   83.6542   11.8401 C.ar    1  UNL1        0.0139
      9 C          62.5816   82.5725   12.4335 C.ar    1  UNL1        0.0014
     10 C          62.4619   81.2472   11.7412 C.ar    1  UNL1        0.0294
     11 C          63.1952   81.0037   10.4555 C.ar    1  UNL1        0.1401
     12 F          63.0754   79.6784    9.7632 F       1  UNL1       -0.2042
     13 C          64.0482   82.0854    9.8621 C.ar    1  UNL1        0.0294
     14 C          64.1680   83.4108   10.5544 C.ar    1  UNL1        0.0014
     15 C          60.6011   89.5103   12.5405 C.3     1  UNL1        0.0265
     16 C          62.0258   89.1981   12.1902 C.3     1  UNL1        0.1011
     17 C          62.9410   90.2921   11.7257 C.ar    1  UNL1       -0.0042
     18 C          62.8882   90.7600   10.3016 C.ar    1  UNL1       -0.0027
     19 C          63.8034   91.8540    9.8372 C.ar    1  UNL1       -0.0002
     20 C          64.7713   92.4800   10.7970 C.ar    1  UNL1        0.0021
     21 C          64.8241   92.0121   12.2211 C.ar    1  UNL1       -0.0002
     22 C          63.9089   90.9182   12.6855 C.ar    1  UNL1       -0.0027
     23 C          65.6865   93.5740   10.3325 C.ar    1  UNL1        0.0276
     24 C          65.2470   95.0057   10.4166 C.ar    1  UNL1        0.0045
     25 C          66.1622   96.0997    9.9522 C.ar    1  UNL1        0.0298
     26 C          67.5169   95.7620    9.4037 C.ar    1  UNL1        0.1424
     27 F          68.4321   96.8559    8.9392 F       1  UNL1       -0.2041
     28 C          67.9563   94.3302    9.3196 C.ar    1  UNL1        0.0592
     29 C          67.0412   93.2363    9.7840 C.ar    1  UNL1        0.1423
     30 F          67.4806   91.8045    9.7000 F       1  UNL1       -0.2041
     31 C          64.4550   84.1505   13.3994 C.3     1  UNL1        0.0463
     32 C          64.8177   84.6260   14.7750 C.3     1  UNL1        0.0252
     33 C          63.7850   84.6323   15.8629 C.3     1  UNL1        0.0910
     34 N          63.8376   85.6741   16.9408 N.am    1  UNL1       -0.2891
     35 C          62.5710   86.3115   17.4301 C.2     1  UNL1        0.2976
     36 N          62.6235   87.3533   18.5080 N.am    1  UNL1       -0.3133
     37 O          61.2519   85.9071   16.8416 O.2     1  UNL1       -0.2531
     38 H          64.7034   85.9395   17.3271 H       1  UNL1        0.1510
     39 H          63.4892   87.6188   18.8943 H       1  UNL1        0.1465
     40 H          61.7922   87.7717   18.8291 H       1  UNL1        0.1465
@<TRIPOS>BOND
     1    16    15    1
     2    16    17    1
     3    17    18   ar
     4    18    19   ar
     5    19    20   ar
     6    20    23    1
     7    23    24   ar
     8    24    25   ar
     9    25    26   ar
    10    26    27    1
    11    26    28   ar
    12    28    29   ar
    13    29    30    1
    14    20    21   ar
    15    21    22   ar
    16    16     1    1
    17     1     2    1
    18     2     3    1
    19     3     4    1
    20     4    31    1
    21    31    32    1
    22    32    33    1
    23    33    34    1
    24    34    35   am
    25    35    36   am
    26    35    37    2
    27     4     8    1
    28     8     9   ar
    29     9    10   ar
    30    10    11   ar
    31    11    12    1
    32    11    13   ar
    33    13    14   ar
    34     4     5    1
    35     5     6    1
    36     6     7    2
    37    22    17   ar
    38     6     1   am
    39    29    23   ar
    40    14     8   ar
    41    34    38    1
    42    36    39    1
    43    36    40    1
@<TRIPOS>MOLECULE
*****
 40 43 0 0 0
SMALL
GASTEIGER

@<TRIPOS>ATOM
      1 N          62.1039   88.0318   11.2345 N.am    1  UNL1       -0.2438
      2 C          61.5959   88.0702    9.8237 C.3     1  UNL1        0.1009
      3 C          61.7943   86.8875    8.9227 C.3     1  UNL1        0.0661
      4 C          62.5009   85.6665    9.4324 C.3     1  UNL1        0.1578
      5 O          63.0090   85.6281   10.8432 O.3     1  UNL1       -0.4375
      6 C          62.8106   86.8108   11.7443 C.2     1  UNL1        0.4051
      7 O          63.3187   86.7724   13.1551 O.2     1  UNL1       -0.2262
      8 C          62.2022   85.2279    8.0294 C.ar    1  UNL1        0.0139
      9 C          63.3144   84.7663    7.1350 C.ar    1  UNL1        0.0014
     10 C          63.0156   84.3277    5.7320 C.ar    1  UNL1        0.0294
     11 C          61.6047   84.3507    5.2234 C.ar    1  UNL1        0.1401
     12 F          61.3059   83.9121    3.8204 F       1  UNL1       -0.2042
     13 C          60.4925   84.8123    6.1178 C.ar    1  UNL1        0.0294
     14 C          60.7912   85.2509    7.5208 C.ar    1  UNL1        0.0014
     15 C          60.5199   89.7045   12.4357 C.3     1  UNL1        0.0265
     16 C          61.9055   89.2145   12.1356 C.3     1  UNL1        0.1011
     17 C          63.0926   89.9071   12.7365 C.ar    1  UNL1       -0.0042
     18 C          63.7520   91.0374   12.0033 C.ar    1  UNL1       -0.0027
     19 C          64.9391   91.7299   12.6042 C.ar    1  UNL1       -0.0002
     20 C          65.4667   91.2922   13.9384 C.ar    1  UNL1        0.0021
     21 C          64.8073   90.1620   14.6716 C.ar    1  UNL1       -0.0002
     22 C          63.6203   89.4694   14.0707 C.ar    1  UNL1       -0.0027
     23 C          66.6539   91.9849   14.5393 C.ar    1  UNL1        0.0276
     24 C          67.9718   91.9717   13.8231 C.ar    1  UNL1        0.0045
     25 C          69.1589   92.6643   14.4241 C.ar    1  UNL1        0.0298
     26 C          69.0281   93.3701   15.7412 C.ar    1  UNL1        0.1424
     27 F          70.2151   94.0627   16.3421 F       1  UNL1       -0.2041
     28 C          67.7101   93.3832   16.4574 C.ar    1  UNL1        0.0592
     29 C          66.5230   92.6906   15.8564 C.ar    1  UNL1        0.1423
     30 F          65.2051   92.7037   16.5726 F       1  UNL1       -0.2041
     31 C          63.1038   84.2931    9.4549 C.3     1  UNL1        0.0463
     32 C          62.9767   83.4383   10.6808 C.3     1  UNL1        0.0252
     33 C          64.2072   82.9748   11.4028 C.3     1  UNL1        0.0910
     34 N          64.7449   83.7704   12.5551 N.am    1  UNL1       -0.2891
     35 C          64.1751   83.5791   13.9294 C.2     1  UNL1        0.2976
     36 N          64.7128   84.3746   15.0817 N.am    1  UNL1       -0.3133
     37 O          63.0675   82.5921   14.1513 O.2     1  UNL1       -0.2531
     38 H          65.4719   84.4182   12.4094 H       1  UNL1        0.1510
     39 H          65.4397   85.0224   14.9361 H       1  UNL1        0.1465
     40 H          64.3388   84.2490   15.9837 H       1  UNL1        0.1465
@<TRIPOS>BOND
     1    16    15    1
     2    16    17    1
     3    17    18   ar
     4    18    19   ar
     5    19    20   ar
     6    20    23    1
     7    23    24   ar
     8    24    25   ar
     9    25    26   ar
    10    26    27    1
    11    26    28   ar
    12    28    29   ar
    13    29    30    1
    14    20    21   ar
    15    21    22   ar
    16    16     1    1
    17     1     2    1
    18     2     3    1
    19     3     4    1
    20     4    31    1
    21    31    32    1
    22    32    33    1
    23    33    34    1
    24    34    35   am
    25    35    36   am
    26    35    37    2
    27     4     8    1
    28     8     9   ar
    29     9    10   ar
    30    10    11   ar
    31    11    12    1
    32    11    13   ar
    33    13    14   ar
    34     4     5    1
    35     5     6    1
    36     6     7    2
    37    22    17   ar
    38     6     1   am
    39    29    23   ar
    40    14     8   ar
    41    34    38    1
    42    36    39    1
    43    36    40    1
@<TRIPOS>MOLECULE
*****
 40 43 0 0 0
SMALL
GASTEIGER

@<TRIPOS>ATOM
      1 N          62.3402   88.0099   11.4773 N.am    1  UNL1       -0.2438
      2 C          62.4201   86.8351   12.4065 C.3     1  UNL1        0.1009
      3 C          62.5766   85.4500   11.8525 C.3     1  UNL1        0.0661
      4 C          62.6530   85.2396   10.3693 C.3     1  UNL1        0.1578
      5 O          62.5731   86.4144    9.4400 O.3     1  UNL1       -0.4375
      6 C          62.4166   87.7996    9.9940 C.2     1  UNL1        0.4051
      7 O          62.3367   88.9744    9.0648 O.2     1  UNL1       -0.2262
      8 C          62.7742   83.8206   10.8402 C.ar    1  UNL1        0.0139
      9 C          62.1933   83.4172   12.1631 C.ar    1  UNL1        0.0014
     10 C          62.3144   81.9982   12.6340 C.ar    1  UNL1        0.0294
     11 C          63.0164   80.9826   11.7820 C.ar    1  UNL1        0.1401
     12 F          63.1376   79.5636   12.2529 F       1  UNL1       -0.2042
     13 C          63.5973   81.3860   10.4592 C.ar    1  UNL1        0.0294
     14 C          63.4761   82.8050    9.9883 C.ar    1  UNL1        0.0014
     15 C          60.8568   90.0897   11.9504 C.3     1  UNL1        0.0265
     16 C          62.1837   89.3951   12.0313 C.3     1  UNL1        0.1011
     17 C          63.3544   90.0856   12.6661 C.ar    1  UNL1       -0.0042
     18 C          63.9131   89.5764   13.9617 C.ar    1  UNL1       -0.0027
     19 C          65.0837   90.2669   14.5965 C.ar    1  UNL1       -0.0002
     20 C          65.6955   91.4665   13.9357 C.ar    1  UNL1        0.0021
     21 C          65.1367   91.9756   12.6402 C.ar    1  UNL1       -0.0002
     22 C          63.9662   91.2852   12.0054 C.ar    1  UNL1       -0.0027
     23 C          66.8661   92.1570   14.5706 C.ar    1  UNL1        0.0276
     24 C          66.6886   92.9007   15.8611 C.ar    1  UNL1        0.0045
     25 C          67.8593   93.5911   16.4959 C.ar    1  UNL1        0.0298
     26 C          69.2073   93.5379   15.8402 C.ar    1  UNL1        0.1424
     27 F          70.3779   94.2283   16.4750 F       1  UNL1       -0.2041
     28 C          69.3847   92.7941   14.5497 C.ar    1  UNL1        0.0592
     29 C          68.2141   92.1037   13.9149 C.ar    1  UNL1        0.1423
     30 F          68.3916   91.3599   12.6244 F       1  UNL1       -0.2041
     31 C          62.7716   84.5364    9.0496 C.3     1  UNL1        0.0463
     32 C          62.3018   85.2115    7.7953 C.3     1  UNL1        0.0252
     33 C          60.8712   85.0807    7.3637 C.3     1  UNL1        0.0910
     34 N          60.1439   86.2689    6.8077 N.am    1  UNL1       -0.2891
     35 C          59.3919   87.1854    7.7268 C.2     1  UNL1        0.2976
     36 N          58.6646   88.3736    7.1709 N.am    1  UNL1       -0.3133
     37 O          59.3672   86.9135    9.2018 O.2     1  UNL1       -0.2531
     38 H          60.1601   86.4473    5.8397 H       1  UNL1        0.1510
     39 H          58.6808   88.5520    6.2029 H       1  UNL1        0.1465
     40 H          58.1710   88.9751    7.7741 H       1  UNL1        0.1465
@<TRIPOS>BOND
     1    16    15    1
     2    16    17    1
     3    17    18   ar
     4    18    19   ar
     5    19    20   ar
     6    20    23    1
     7    23    24   ar
     8    24    25   ar
     9    25    26   ar
    10    26    27    1
    11    26    28   ar
    12    28    29   ar
    13    29    30    1
    14    20    21   ar
    15    21    22   ar
    16    16     1    1
    17     1     2    1
    18     2     3    1
    19     3     4    1
    20     4    31    1
    21    31    32    1
    22    32    33    1
    23    33    34    1
    24    34    35   am
    25    35    36   am
    26    35    37    2
    27     4     8    1
    28     8     9   ar
    29     9    10   ar
    30    10    11   ar
    31    11    12    1
    32    11    13   ar
    33    13    14   ar
    34     4     5    1
    35     5     6    1
    36     6     7    2
    37    22    17   ar
    38     6     1   am
    39    29    23   ar
    40    14     8   ar
    41    34    38    1
    42    36    39    1
    43    36    40    1
