@<TRIPOS>MOLECULE
*****
 22 24 0 0 0
SMALL
GASTEIGER

@<TRIPOS>ATOM
      1 C          65.7384   92.7454   11.7833 C.ar    1  UNL1        0.1378
      2 N          66.4142   92.6095   13.1155 N.ar    1  UNL1       -0.1770
      3 C          65.9170   91.6020   14.1094 C.ar    1  UNL1        0.3551
      4 O          66.5928   91.4661   15.4417 O.2     1  UNL1       -0.2440
      5 N          64.7441   90.7304   13.7711 N.ar    1  UNL1       -0.2588
      6 C          64.0682   90.8663   12.4388 C.ar    1  UNL1        0.0717
      7 C          62.8953   89.9947   12.1005 C.ar    1  UNL1        0.0291
      8 C          62.2195   90.1306   10.7683 C.ar    1  UNL1        0.0591
      9 CL         61.0465   89.2590   10.4299 Cl      1  UNL1       -0.0822
     10 C          62.7166   91.1381    9.7744 C.ar    1  UNL1        0.0116
     11 C          63.8896   92.0096   10.1127 C.ar    1  UNL1        0.0051
     12 C          64.5654   91.8737   11.4449 C.ar    1  UNL1        0.0480
     13 C          64.2469   89.7229   14.7650 C.ar    1  UNL1        0.0683
     14 C          63.5021   90.1774   15.9851 C.ar    1  UNL1        0.0177
     15 C          63.0049   89.1699   16.9790 C.ar    1  UNL1        0.0015
     16 C          63.2526   87.7079   16.7528 C.ar    1  UNL1        0.0001
     17 C          63.9974   87.2534   15.5326 C.ar    1  UNL1        0.0015
     18 C          64.4946   88.2608   14.5387 C.ar    1  UNL1        0.0177
     19 N          66.2355   93.7528   10.7894 N.pl3   1  UNL1       -0.2913
     20 C          65.7083   95.1568   10.8170 C.3     1  UNL1        0.1136
     21 C          68.0518   92.0954    9.9502 C.3     1  UNL1        0.0232
     22 C          67.2599   93.3562    9.7679 C.3     1  UNL1        0.0923
@<TRIPOS>BOND
     1    21    22    1
     2    22    19    1
     3    19    20    1
     4    19     1    1
     5     1     2   ar
     6     2     3   ar
     7     3     4    2
     8     3     5   ar
     9     5    13    1
    10    13    14   ar
    11    14    15   ar
    12    15    16   ar
    13    16    17   ar
    14    17    18   ar
    15     5     6   ar
    16     6     7   ar
    17     7     8   ar
    18     8     9    1
    19     8    10   ar
    20    10    11   ar
    21    11    12   ar
    22    12     1   ar
    23    18    13   ar
    24    12     6   ar
@<TRIPOS>MOLECULE
*****
 22 24 0 0 0
SMALL
GASTEIGER

@<TRIPOS>ATOM
      1 C          63.8813   89.8302   13.4256 C.ar    1  UNL1        0.1378
      2 N          63.2576   90.5712   12.2802 N.ar    1  UNL1       -0.1770
      3 C          62.5544   89.8154   11.1920 C.ar    1  UNL1        0.3551
      4 O          61.9307   90.5564   10.0465 O.2     1  UNL1       -0.2440
      5 N          62.4748   88.3186   11.2491 N.ar    1  UNL1       -0.2588
      6 C          63.0985   87.5776   12.3946 C.ar    1  UNL1        0.0717
      7 C          63.0189   86.0808   12.4518 C.ar    1  UNL1        0.0291
      8 C          63.6425   85.3398   13.5971 C.ar    1  UNL1        0.0591
      9 CL         63.5629   83.8430   13.6544 Cl      1  UNL1       -0.0822
     10 C          64.3458   86.0956   14.6854 C.ar    1  UNL1        0.0116
     11 C          64.4254   87.5924   14.6282 C.ar    1  UNL1        0.0051
     12 C          63.8017   88.3334   13.4828 C.ar    1  UNL1        0.0480
     13 C          61.7716   87.5628   10.1609 C.ar    1  UNL1        0.0683
     14 C          62.5511   86.6638    9.2477 C.ar    1  UNL1        0.0177
     15 C          61.8479   85.9080    8.1595 C.ar    1  UNL1        0.0015
     16 C          60.3651   86.0512    7.9845 C.ar    1  UNL1        0.0001
     17 C          59.5854   86.9503    8.8977 C.ar    1  UNL1        0.0015
     18 C          60.2887   87.7061    9.9859 C.ar    1  UNL1        0.0177
     19 N          64.5845   90.5860   14.5138 N.pl3   1  UNL1       -0.2913
     20 C          63.8726   90.8855   15.7997 C.3     1  UNL1        0.1136
     21 C          66.2871   92.2541   13.4800 C.3     1  UNL1        0.0232
     22 C          65.9997   91.0423   14.3161 C.3     1  UNL1        0.0923
@<TRIPOS>BOND
     1    21    22    1
     2    22    19    1
     3    19    20    1
     4    19     1    1
     5     1     2   ar
     6     2     3   ar
     7     3     4    2
     8     3     5   ar
     9     5    13    1
    10    13    14   ar
    11    14    15   ar
    12    15    16   ar
    13    16    17   ar
    14    17    18   ar
    15     5     6   ar
    16     6     7   ar
    17     7     8   ar
    18     8     9    1
    19     8    10   ar
    20    10    11   ar
    21    11    12   ar
    22    12     1   ar
    23    18    13   ar
    24    12     6   ar
@<TRIPOS>MOLECULE
*****
 22 24 0 0 0
SMALL
GASTEIGER

@<TRIPOS>ATOM
      1 C          63.5183   88.4404   13.1024 C.ar    1  UNL1        0.1378
      2 N          64.1351   87.4818   14.0774 N.ar    1  UNL1       -0.1770
      3 C          64.0081   86.0034   13.8581 C.ar    1  UNL1        0.3551
      4 O          64.6249   85.0448   14.8332 O.2     1  UNL1       -0.2440
      5 N          63.2644   85.4835   12.6637 N.ar    1  UNL1       -0.2588
      6 C          62.6477   86.4421   11.6886 C.ar    1  UNL1        0.0717
      7 C          61.9040   85.9223   10.4942 C.ar    1  UNL1        0.0291
      8 C          61.2873   86.8808    9.5191 C.ar    1  UNL1        0.0591
      9 CL         60.5435   86.3610    8.3246 Cl      1  UNL1       -0.0822
     10 C          61.4142   88.3593    9.7385 C.ar    1  UNL1        0.0116
     11 C          62.1579   88.8791   10.9329 C.ar    1  UNL1        0.0051
     12 C          62.7746   87.9206   11.9079 C.ar    1  UNL1        0.0480
     13 C          63.1375   84.0051   12.4443 C.ar    1  UNL1        0.0683
     14 C          62.3620   83.1665   13.4166 C.ar    1  UNL1        0.0177
     15 C          62.2351   81.6881   13.1972 C.ar    1  UNL1        0.0015
     16 C          62.8836   81.0483   12.0056 C.ar    1  UNL1        0.0001
     17 C          63.6591   81.8869   11.0333 C.ar    1  UNL1        0.0015
     18 C          63.7860   83.3653   11.2526 C.ar    1  UNL1        0.0177
     19 N          63.6453   89.9188   13.3218 N.pl3   1  UNL1       -0.2913
     20 C          63.5187   90.4854   14.7048 C.3     1  UNL1        0.1136
     21 C          64.8570   91.9763   12.2977 C.3     1  UNL1        0.0232
     22 C          63.8989   90.8307   12.1580 C.3     1  UNL1        0.0923
@<TRIPOS>BOND
     1    21    22    1
     2    22    19    1
     3    19    20    1
     4    19     1    1
     5     1     2   ar
     6     2     3   ar
     7     3     4    2
     8     3     5   ar
     9     5    13    1
    10    13    14   ar
    11    14    15   ar
    12    15    16   ar
    13    16    17   ar
    14    17    18   ar
    15     5     6   ar
    16     6     7   ar
    17     7     8   ar
    18     8     9    1
    19     8    10   ar
    20    10    11   ar
    21    11    12   ar
    22    12     1   ar
    23    18    13   ar
    24    12     6   ar
@<TRIPOS>MOLECULE
*****
 22 24 0 0 0
SMALL
GASTEIGER

@<TRIPOS>ATOM
      1 C          64.5269   90.7117   13.7174 C.ar    1  UNL1        0.1378
      2 N          64.0104   90.8859   12.3199 N.ar    1  UNL1       -0.1770
      3 C          64.5649   91.9709   11.4452 C.ar    1  UNL1        0.3551
      4 O          64.0483   92.1451   10.0477 O.2     1  UNL1       -0.2440
      5 N          65.6359   92.8818   11.9678 N.ar    1  UNL1       -0.2588
      6 C          66.1524   92.7076   13.3653 C.ar    1  UNL1        0.0717
      7 C          67.2234   93.6185   13.8880 C.ar    1  UNL1        0.0291
      8 C          67.7399   93.4443   15.2854 C.ar    1  UNL1        0.0591
      9 CL         68.8110   94.3552   15.8081 Cl      1  UNL1       -0.0822
     10 C          67.1854   92.3593   16.1602 C.ar    1  UNL1        0.0116
     11 C          66.1144   91.4484   15.6375 C.ar    1  UNL1        0.0051
     12 C          65.5979   91.6226   14.2401 C.ar    1  UNL1        0.0480
     13 C          66.1904   93.9668   11.0931 C.ar    1  UNL1        0.0683
     14 C          65.7670   95.3902   11.3042 C.ar    1  UNL1        0.0177
     15 C          66.3215   96.4753   10.4295 C.ar    1  UNL1        0.0015
     16 C          67.2994   96.1369    9.3435 C.ar    1  UNL1        0.0001
     17 C          67.7228   94.7134    9.1323 C.ar    1  UNL1        0.0015
     18 C          67.1683   93.6284   10.0071 C.ar    1  UNL1        0.0177
     19 N          63.9723   89.6267   14.5921 N.pl3   1  UNL1       -0.2913
     20 C          63.1722   89.9809   15.8104 C.3     1  UNL1        0.1136
     21 C          64.1876   87.1435   15.3254 C.3     1  UNL1        0.0232
     22 C          64.2180   88.1873   14.2486 C.3     1  UNL1        0.0923
@<TRIPOS>BOND
     1    21    22    1
     2    22    19    1
     3    19    20    1
     4    19     1    1
     5     1     2   ar
     6     2     3   ar
     7     3     4    2
     8     3     5   ar
     9     5    13    1
    10    13    14   ar
    11    14    15   ar
    12    15    16   ar
    13    16    17   ar
    14    17    18   ar
    15     5     6   ar
    16     6     7   ar
    17     7     8   ar
    18     8     9    1
    19     8    10   ar
    20    10    11   ar
    21    11    12   ar
    22    12     1   ar
    23    18    13   ar
    24    12     6   ar
@<TRIPOS>MOLECULE
*****
 22 24 0 0 0
SMALL
GASTEIGER

@<TRIPOS>ATOM
      1 C          63.5005   87.5891   13.3960 C.ar    1  UNL1        0.1378
      2 N          63.1193   88.5792   12.3357 N.ar    1  UNL1       -0.1770
      3 C          62.6131   88.0987   11.0079 C.ar    1  UNL1        0.3551
      4 O          62.2319   89.0889    9.9476 O.2     1  UNL1       -0.2440
      5 N          62.4882   86.6281   10.7405 N.ar    1  UNL1       -0.2588
      6 C          62.8694   85.6378   11.8008 C.ar    1  UNL1        0.0717
      7 C          62.7444   84.1672   11.5333 C.ar    1  UNL1        0.0291
      8 C          63.1256   83.1771   12.5936 C.ar    1  UNL1        0.0591
      9 CL         63.0007   81.7063   12.3262 Cl      1  UNL1       -0.0822
     10 C          63.6318   83.6576   13.9214 C.ar    1  UNL1        0.0116
     11 C          63.7567   85.1282   14.1888 C.ar    1  UNL1        0.0051
     12 C          63.3755   86.1183   13.1285 C.ar    1  UNL1        0.0480
     13 C          61.9820   86.1476    9.4127 C.ar    1  UNL1        0.0683
     14 C          60.5473   86.3658    9.0334 C.ar    1  UNL1        0.0177
     15 C          60.0412   85.8853    7.7056 C.ar    1  UNL1        0.0015
     16 C          60.9697   85.1866    6.7572 C.ar    1  UNL1        0.0001
     17 C          62.4045   84.9683    7.1365 C.ar    1  UNL1        0.0015
     18 C          62.9107   85.4488    8.4643 C.ar    1  UNL1        0.0177
     19 N          64.0066   88.0696   14.7237 N.pl3   1  UNL1       -0.2913
     20 C          64.8156   89.3300   14.8065 C.3     1  UNL1        0.1136
     21 C          63.0384   87.9629   17.1323 C.3     1  UNL1        0.0232
     22 C          63.7038   87.2896   15.9687 C.3     1  UNL1        0.0923
@<TRIPOS>BOND
     1    21    22    1
     2    22    19    1
     3    19    20    1
     4    19     1    1
     5     1     2   ar
     6     2     3   ar
     7     3     4    2
     8     3     5   ar
     9     5    13    1
    10    13    14   ar
    11    14    15   ar
    12    15    16   ar
    13    16    17   ar
    14    17    18   ar
    15     5     6   ar
    16     6     7   ar
    17     7     8   ar
    18     8     9    1
    19     8    10   ar
    20    10    11   ar
    21    11    12   ar
    22    12     1   ar
    23    18    13   ar
    24    12     6   ar
@<TRIPOS>MOLECULE
*****
 22 24 0 0 0
SMALL
GASTEIGER

@<TRIPOS>ATOM
      1 C          63.9127   87.9969   13.9606 C.ar    1  UNL1        0.1378
      2 N          64.3872   86.8464   14.7980 N.ar    1  UNL1       -0.1770
      3 C          64.1713   85.4381   14.3288 C.ar    1  UNL1        0.3551
      4 O          64.6458   84.2876   15.1662 O.2     1  UNL1       -0.2440
      5 N          63.4809   85.1804   13.0223 N.ar    1  UNL1       -0.2588
      6 C          63.0064   86.3309   12.1850 C.ar    1  UNL1        0.0717
      7 C          62.3160   86.0731   10.8785 C.ar    1  UNL1        0.0291
      8 C          61.8415   87.2236   10.0412 C.ar    1  UNL1        0.0591
      9 CL         61.1511   86.9659    8.7346 Cl      1  UNL1       -0.0822
     10 C          62.0574   88.6319   10.5103 C.ar    1  UNL1        0.0116
     11 C          62.7478   88.8897   11.8168 C.ar    1  UNL1        0.0051
     12 C          63.2223   87.7392   12.6541 C.ar    1  UNL1        0.0480
     13 C          63.2650   83.7721   12.5532 C.ar    1  UNL1        0.0683
     14 C          62.3975   82.8415   13.3478 C.ar    1  UNL1        0.0177
     15 C          62.1816   81.4332   12.8786 C.ar    1  UNL1        0.0015
     16 C          62.8333   80.9555   11.6149 C.ar    1  UNL1        0.0001
     17 C          63.7009   81.8860   10.8203 C.ar    1  UNL1        0.0015
     18 C          63.9168   83.2943   11.2894 C.ar    1  UNL1        0.0177
     19 N          64.1286   89.4052   14.4298 N.pl3   1  UNL1       -0.2913
     20 C          64.6241   90.4474   13.4715 C.3     1  UNL1        0.1136
     21 C          63.6065   91.2038   16.2305 C.3     1  UNL1        0.0232
     22 C          63.8489   89.7714   15.8574 C.3     1  UNL1        0.0923
@<TRIPOS>BOND
     1    21    22    1
     2    22    19    1
     3    19    20    1
     4    19     1    1
     5     1     2   ar
     6     2     3   ar
     7     3     4    2
     8     3     5   ar
     9     5    13    1
    10    13    14   ar
    11    14    15   ar
    12    15    16   ar
    13    16    17   ar
    14    17    18   ar
    15     5     6   ar
    16     6     7   ar
    17     7     8   ar
    18     8     9    1
    19     8    10   ar
    20    10    11   ar
    21    11    12   ar
    22    12     1   ar
    23    18    13   ar
    24    12     6   ar
@<TRIPOS>MOLECULE
*****
 22 24 0 0 0
SMALL
GASTEIGER

@<TRIPOS>ATOM
      1 C          63.4963   84.4851   12.4790 C.ar    1  UNL1        0.1378
      2 N          64.1269   84.5807   13.8366 N.ar    1  UNL1       -0.1770
      3 C          64.2512   85.9134   14.5137 C.ar    1  UNL1        0.3551
      4 O          64.8819   86.0090   15.8714 O.2     1  UNL1       -0.2440
      5 N          63.7449   87.1505   13.8332 N.ar    1  UNL1       -0.2588
      6 C          63.1142   87.0550   12.4755 C.ar    1  UNL1        0.0717
      7 C          62.6079   88.2921   11.7950 C.ar    1  UNL1        0.0291
      8 C          61.9772   88.1964   10.4374 C.ar    1  UNL1        0.0591
      9 CL         61.4709   89.4336    9.7568 Cl      1  UNL1       -0.0822
     10 C          61.8530   86.8637    9.7603 C.ar    1  UNL1        0.0116
     11 C          62.3593   85.6266   10.4408 C.ar    1  UNL1        0.0051
     12 C          62.9899   85.7223   11.7984 C.ar    1  UNL1        0.0480
     13 C          63.8692   88.4833   14.5102 C.ar    1  UNL1        0.0683
     14 C          64.6019   89.6032   13.8329 C.ar    1  UNL1        0.0177
     15 C          64.7262   90.9359   14.5100 C.ar    1  UNL1        0.0015
     16 C          64.1178   91.1487   15.8644 C.ar    1  UNL1        0.0001
     17 C          63.3850   90.0287   16.5418 C.ar    1  UNL1        0.0015
     18 C          63.2607   88.6960   15.8647 C.ar    1  UNL1        0.0177
     19 N          63.3720   83.1524   11.8020 N.pl3   1  UNL1       -0.2913
     20 C          64.2703   82.8093   10.6508 C.3     1  UNL1        0.1136
     21 C          62.7549   80.7497   12.5742 C.3     1  UNL1        0.0232
     22 C          62.3493   82.1627   12.2762 C.3     1  UNL1        0.0923
@<TRIPOS>BOND
     1    21    22    1
     2    22    19    1
     3    19    20    1
     4    19     1    1
     5     1     2   ar
     6     2     3   ar
     7     3     4    2
     8     3     5   ar
     9     5    13    1
    10    13    14   ar
    11    14    15   ar
    12    15    16   ar
    13    16    17   ar
    14    17    18   ar
    15     5     6   ar
    16     6     7   ar
    17     7     8   ar
    18     8     9    1
    19     8    10   ar
    20    10    11   ar
    21    11    12   ar
    22    12     1   ar
    23    18    13   ar
    24    12     6   ar
@<TRIPOS>MOLECULE
*****
 22 24 0 0 0
SMALL
GASTEIGER

@<TRIPOS>ATOM
      1 C          63.7615   85.9347   13.8361 C.ar    1  UNL1        0.1378
      2 N          63.4351   84.6089   13.2150 N.ar    1  UNL1       -0.1770
      3 C          62.8364   84.5515   11.8408 C.ar    1  UNL1        0.3551
      4 O          62.5100   83.2257   11.2197 O.2     1  UNL1       -0.2440
      5 N          62.5642   85.8199   11.0877 N.ar    1  UNL1       -0.2588
      6 C          62.8906   87.1457   11.7088 C.ar    1  UNL1        0.0717
      7 C          62.6184   88.4141   10.9558 C.ar    1  UNL1        0.0291
      8 C          62.9449   89.7398   11.5769 C.ar    1  UNL1        0.0591
      9 CL         62.6727   91.0082   10.8238 Cl      1  UNL1       -0.0822
     10 C          63.5435   89.7972   12.9511 C.ar    1  UNL1        0.0116
     11 C          63.8157   88.5288   13.7041 C.ar    1  UNL1        0.0051
     12 C          63.4893   87.2031   13.0830 C.ar    1  UNL1        0.0480
     13 C          61.9656   85.7625    9.7136 C.ar    1  UNL1        0.0683
     14 C          60.5755   86.2749    9.4790 C.ar    1  UNL1        0.0177
     15 C          59.9769   86.2175    8.1049 C.ar    1  UNL1        0.0015
     16 C          60.7684   85.6477    6.9652 C.ar    1  UNL1        0.0001
     17 C          62.1585   85.1353    7.1997 C.ar    1  UNL1        0.0015
     18 C          62.7572   85.1927    8.5739 C.ar    1  UNL1        0.0177
     19 N          64.3601   85.9921   15.2103 N.pl3   1  UNL1       -0.2913
     20 C          65.8495   86.0511   15.3776 C.3     1  UNL1        0.1136
     21 C          63.0528   87.2881   17.0437 C.3     1  UNL1        0.0232
     22 C          63.4692   85.9904   16.4171 C.3     1  UNL1        0.0923
@<TRIPOS>BOND
     1    21    22    1
     2    22    19    1
     3    19    20    1
     4    19     1    1
     5     1     2   ar
     6     2     3   ar
     7     3     4    2
     8     3     5   ar
     9     5    13    1
    10    13    14   ar
    11    14    15   ar
    12    15    16   ar
    13    16    17   ar
    14    17    18   ar
    15     5     6   ar
    16     6     7   ar
    17     7     8   ar
    18     8     9    1
    19     8    10   ar
    20    10    11   ar
    21    11    12   ar
    22    12     1   ar
    23    18    13   ar
    24    12     6   ar
@<TRIPOS>MOLECULE
*****
 22 24 0 0 0
SMALL
GASTEIGER

@<TRIPOS>ATOM
      1 C          62.2951   88.7545   10.8773 C.ar    1  UNL1        0.1378
      2 N          61.8348   87.8799    9.7490 N.ar    1  UNL1       -0.1770
      3 C          62.0356   86.3952    9.8208 C.ar    1  UNL1        0.3551
      4 O          61.5753   85.5206    8.6923 O.2     1  UNL1       -0.2440
      5 N          62.6967   85.7850   11.0210 N.ar    1  UNL1       -0.2588
      6 C          63.1570   86.6595   12.1495 C.ar    1  UNL1        0.0717
      7 C          63.8181   86.0493   13.3497 C.ar    1  UNL1        0.0291
      8 C          64.2783   86.9238   14.4781 C.ar    1  UNL1        0.0591
      9 CL         64.9394   86.3136   15.6784 Cl      1  UNL1       -0.0822
     10 C          64.0775   88.4086   14.4062 C.ar    1  UNL1        0.0116
     11 C          63.4165   89.0188   13.2060 C.ar    1  UNL1        0.0051
     12 C          62.9562   88.1443   12.0776 C.ar    1  UNL1        0.0480
     13 C          62.8975   84.3002   11.0928 C.ar    1  UNL1        0.0683
     14 C          62.1902   83.4977   12.1443 C.ar    1  UNL1        0.0177
     15 C          62.3910   82.0130   12.2162 C.ar    1  UNL1        0.0015
     16 C          63.2991   81.3307   11.2365 C.ar    1  UNL1        0.0001
     17 C          64.0065   82.1332   10.1849 C.ar    1  UNL1        0.0015
     18 C          63.8056   83.6179   10.1131 C.ar    1  UNL1        0.0177
     19 N          62.0943   90.2392   10.8055 N.pl3   1  UNL1       -0.2913
     20 C          63.1419   91.1081   10.1750 C.3     1  UNL1        0.1136
     21 C          59.6101   90.0221   11.5350 C.3     1  UNL1        0.0232
     22 C          60.8458   90.8551   11.3642 C.3     1  UNL1        0.0923
@<TRIPOS>BOND
     1    21    22    1
     2    22    19    1
     3    19    20    1
     4    19     1    1
     5     1     2   ar
     6     2     3   ar
     7     3     4    2
     8     3     5   ar
     9     5    13    1
    10    13    14   ar
    11    14    15   ar
    12    15    16   ar
    13    16    17   ar
    14    17    18   ar
    15     5     6   ar
    16     6     7   ar
    17     7     8   ar
    18     8     9    1
    19     8    10   ar
    20    10    11   ar
    21    11    12   ar
    22    12     1   ar
    23    18    13   ar
    24    12     6   ar
