@<TRIPOS>MOLECULE
*****
 30 34 0 0 0
SMALL
GASTEIGER

@<TRIPOS>ATOM
      1 C          64.0513   90.7955   13.6542 C.2     1  UNL1        0.1012
      2 C          63.9954   90.6761   15.1483 C.2     1  UNL1        0.1182
      3 CL         63.1172   89.6402   15.7856 Cl      1  UNL1       -0.0771
      4 C          64.8175   91.5924   16.0052 C.2     1  UNL1        0.2481
      5 N          65.6957   92.6282   15.3680 N.2     1  UNL1       -0.0293
      6 C          65.7516   92.7476   13.8738 C.2     1  UNL1        0.4105
      7 N          66.5185   93.6651   12.9683 N.2     1  UNL1        0.0121
      8 C          66.1703   93.3158   11.5517 C.2     1  UNL1        0.3778
      9 N          65.1882   92.1824   11.5817 N.2     1  UNL1       -0.0450
     10 C          64.9294   91.8313   13.0169 C.3     1  UNL1        0.3609
     11 C          66.7096   93.9827   10.3211 C.ar    1  UNL1        0.1220
     12 C          66.3359   95.3471    9.8221 C.ar    1  UNL1        0.1040
     13 N          67.1125   95.6100    8.5661 N.ar    1  UNL1       -0.2474
     14 C          67.0470   96.8560    7.7335 C.3     1  UNL1        0.1538
     15 N          67.9663   94.4082    8.2888 N.ar    1  UNL1       -0.1733
     16 C          67.7172   93.4025    9.3735 C.ar    1  UNL1        0.0879
     17 C          68.3625   92.0534    9.4901 C.3     1  UNL1        0.0542
     18 N          61.5847   88.0465   11.0833 N.3     1  UNL1       -0.2632
     19 C          61.2879   89.5166   11.1090 C.3     1  UNL1        0.0941
     20 C          62.1100   90.4329   11.9658 C.3     1  UNL1        0.1080
     21 N          63.2291   89.8791   12.7972 N.pl3   1  UNL1       -0.3034
     22 C          63.5260   88.4090   12.7717 C.3     1  UNL1        0.1080
     23 C          62.7037   87.4927   11.9147 C.3     1  UNL1        0.0941
     24 C          60.7626   87.1302   10.2265 C.3     1  UNL1        0.1424
     25 C          61.7314   84.4194    5.7999 C.3     1  UNL1        0.0978
     26 C          61.8760   85.0125    7.1701 C.ar    1  UNL1        0.2368
     27 N          60.8804   85.9005    7.8559 N.ar    1  UNL1       -0.1934
     28 C          61.4306   86.2584    9.2047 C.ar    1  UNL1        0.1966
     29 N          62.7661   85.5917    9.3524 N.ar    1  UNL1       -0.0592
     30 O          63.0414   84.8216    8.0950 O.2     1  UNL1       -0.3373
@<TRIPOS>BOND
     1    25    26    1
     2    26    27   ar
     3    27    28   ar
     4    28    24    1
     5    24    18    1
     6    18    19    1
     7    19    20    1
     8    20    21    1
     9    21     1    1
    10     1     2    2
    11     2     3    1
    12     2     4    1
    13     4     5    2
    14     5     6    1
    15     6     7    2
    16     7     8    1
    17     8    11    1
    18    11    12   ar
    19    12    13   ar
    20    13    14    1
    21    13    15   ar
    22    15    16   ar
    23    16    17    1
    24     8     9    2
    25     9    10    1
    26    21    22    1
    27    22    23    1
    28    28    29   ar
    29    29    30   ar
    30    30    26   ar
    31    23    18    1
    32    10     1    1
    33    10     6    1
    34    16    11   ar
@<TRIPOS>MOLECULE
*****
 30 34 0 0 0
SMALL
GASTEIGER

@<TRIPOS>ATOM
      1 C          61.7275   87.5511   10.0883 C.2     1  UNL1        0.1012
      2 C          60.6763   87.6234    9.0208 C.2     1  UNL1        0.1182
      3 CL         60.1891   86.3671    8.3616 Cl      1  UNL1       -0.0771
      4 C          60.1123   88.9519    8.6123 C.2     1  UNL1        0.2481
      5 N          60.5994   90.2083    9.2715 N.2     1  UNL1       -0.0293
      6 C          61.6506   90.1359   10.3391 C.2     1  UNL1        0.4105
      7 N          62.3210   91.1966   11.1610 N.2     1  UNL1        0.0121
      8 C          63.2993   90.5236   12.0774 C.2     1  UNL1        0.3778
      9 N          63.2336   89.0469   11.8219 N.2     1  UNL1       -0.0450
     10 C          62.2146   88.8074   10.7475 C.3     1  UNL1        0.3609
     11 C          64.1875   91.2071   13.0743 C.ar    1  UNL1        0.1220
     12 C          65.1560   92.3139   12.7792 C.ar    1  UNL1        0.1040
     13 N          65.8302   92.6947   14.0639 N.ar    1  UNL1       -0.2474
     14 C          66.8731   93.7599   14.2303 C.3     1  UNL1        0.1538
     15 N          65.2784   91.8233   15.1530 N.ar    1  UNL1       -0.1733
     16 C          64.2632   90.9039   14.5414 C.ar    1  UNL1        0.0879
     17 C          63.4639   89.8639   15.2691 C.3     1  UNL1        0.0542
     18 N          63.4195   83.5654   11.3137 N.3     1  UNL1       -0.2632
     19 C          62.8011   84.4658   12.3418 C.3     1  UNL1        0.0941
     20 C          62.2371   85.7943   11.9334 C.3     1  UNL1        0.1080
     21 N          62.2915   86.2226   10.4968 N.pl3   1  UNL1       -0.3034
     22 C          62.9098   85.3222    9.4686 C.3     1  UNL1        0.1080
     23 C          63.4738   83.9936    9.8772 C.3     1  UNL1        0.0941
     24 C          63.9835   82.2369   11.7221 C.3     1  UNL1        0.1424
     25 C          60.1171   79.7674   14.3364 C.3     1  UNL1        0.0978
     26 C          61.4744   80.2499   13.9181 C.ar    1  UNL1        0.2368
     27 N          61.7682   81.1688   12.7694 N.ar    1  UNL1       -0.1934
     28 C          63.2516   81.3850   12.7165 C.ar    1  UNL1        0.1966
     29 N          63.8746   80.5998   13.8324 N.ar    1  UNL1       -0.0592
     30 O          62.7763   79.8983   14.5750 O.2     1  UNL1       -0.3373
@<TRIPOS>BOND
     1    25    26    1
     2    26    27   ar
     3    27    28   ar
     4    28    24    1
     5    24    18    1
     6    18    19    1
     7    19    20    1
     8    20    21    1
     9    21     1    1
    10     1     2    2
    11     2     3    1
    12     2     4    1
    13     4     5    2
    14     5     6    1
    15     6     7    2
    16     7     8    1
    17     8    11    1
    18    11    12   ar
    19    12    13   ar
    20    13    14    1
    21    13    15   ar
    22    15    16   ar
    23    16    17    1
    24     8     9    2
    25     9    10    1
    26    21    22    1
    27    22    23    1
    28    28    29   ar
    29    29    30   ar
    30    30    26   ar
    31    23    18    1
    32    10     1    1
    33    10     6    1
    34    16    11   ar
@<TRIPOS>MOLECULE
*****
 30 34 0 0 0
SMALL
GASTEIGER

@<TRIPOS>ATOM
      1 C          61.6385   87.5274    9.9020 C.2     1  UNL1        0.1012
      2 C          60.5391   87.5230    8.8815 C.2     1  UNL1        0.1182
      3 CL         60.0337   86.2231    8.3292 Cl      1  UNL1       -0.0771
      4 C          59.9452   88.8184    8.4134 C.2     1  UNL1        0.2481
      5 N          60.4507   90.1182    8.9657 N.2     1  UNL1       -0.0293
      6 C          61.5500   90.1226    9.9862 C.2     1  UNL1        0.4105
      7 N          62.2477   91.2390   10.7051 N.2     1  UNL1        0.0121
      8 C          63.2728   90.6335   11.6176 C.2     1  UNL1        0.3778
      9 N          63.2087   89.1429   11.4626 N.2     1  UNL1       -0.0450
     10 C          62.1440   88.8271   10.4543 C.3     1  UNL1        0.3609
     11 C          64.1993   91.3865   12.5256 C.ar    1  UNL1        0.1220
     12 C          64.3223   91.2023   14.0092 C.ar    1  UNL1        0.1040
     13 N          65.3646   92.1578   14.5100 N.ar    1  UNL1       -0.2474
     14 C          65.8079   92.3116   15.9348 C.3     1  UNL1        0.1538
     15 N          65.8857   92.9325   13.3360 N.ar    1  UNL1       -0.1733
     16 C          65.1655   92.4558   12.1096 C.ar    1  UNL1        0.0879
     17 C          65.3748   92.9599   10.7124 C.3     1  UNL1        0.0542
     18 N          63.4203   83.6410   11.3062 N.3     1  UNL1       -0.2632
     19 C          63.4799   84.0121    9.8540 C.3     1  UNL1        0.0941
     20 C          62.8860   85.3075    9.3860 C.3     1  UNL1        0.1080
     21 N          62.2324   86.2319   10.3701 N.pl3   1  UNL1       -0.3034
     22 C          62.1729   85.8609   11.8222 C.3     1  UNL1        0.1080
     23 C          62.7668   84.5654   12.2903 C.3     1  UNL1        0.0941
     24 C          64.0142   82.3457   11.7743 C.3     1  UNL1        0.1424
     25 C          60.1103   79.8840   14.3397 C.3     1  UNL1        0.0978
     26 C          61.4744   80.3583   13.9342 C.ar    1  UNL1        0.2368
     27 N          61.7831   81.2870   12.7975 N.ar    1  UNL1       -0.1934
     28 C          63.2688   81.4897   12.7551 C.ar    1  UNL1        0.1966
     29 N          63.8781   80.6863   13.8656 N.ar    1  UNL1       -0.0592
     30 O          62.7692   79.9871   14.5943 O.2     1  UNL1       -0.3373
@<TRIPOS>BOND
     1    25    26    1
     2    26    27   ar
     3    27    28   ar
     4    28    24    1
     5    24    18    1
     6    18    19    1
     7    19    20    1
     8    20    21    1
     9    21     1    1
    10     1     2    2
    11     2     3    1
    12     2     4    1
    13     4     5    2
    14     5     6    1
    15     6     7    2
    16     7     8    1
    17     8    11    1
    18    11    12   ar
    19    12    13   ar
    20    13    14    1
    21    13    15   ar
    22    15    16   ar
    23    16    17    1
    24     8     9    2
    25     9    10    1
    26    21    22    1
    27    22    23    1
    28    28    29   ar
    29    29    30   ar
    30    30    26   ar
    31    23    18    1
    32    10     1    1
    33    10     6    1
    34    16    11   ar
@<TRIPOS>MOLECULE
*****
 30 34 0 0 0
SMALL
GASTEIGER

@<TRIPOS>ATOM
      1 C          64.1610   90.0273   14.4360 C.2     1  UNL1        0.1012
      2 C          63.8866   90.1059   15.9085 C.2     1  UNL1        0.1182
      3 CL         63.1875   88.9747   16.6026 Cl      1  UNL1       -0.0771
      4 C          64.3113   91.3156   16.6870 C.2     1  UNL1        0.2481
      5 N          65.0104   92.4469   15.9929 N.2     1  UNL1       -0.0293
      6 C          65.2847   92.3682   14.5204 C.2     1  UNL1        0.4105
      7 N          65.9505   93.3200   13.5712 N.2     1  UNL1        0.0121
      8 C          65.9372   92.6985   12.2061 C.2     1  UNL1        0.3778
      9 N          65.2632   91.3626   12.3116 N.2     1  UNL1       -0.0450
     10 C          64.8600   91.1584   13.7419 C.3     1  UNL1        0.3609
     11 C          66.4992   93.3062   10.9552 C.ar    1  UNL1        0.1220
     12 C          65.9221   94.4690   10.2037 C.ar    1  UNL1        0.1040
     13 N          66.8031   94.7393    9.0201 N.ar    1  UNL1       -0.2474
     14 C          66.5985   95.8162    7.9963 C.3     1  UNL1        0.1538
     15 N          67.9248   93.7435    9.0402 N.ar    1  UNL1       -0.1733
     16 C          67.7369   92.8577   10.2362 C.ar    1  UNL1        0.0879
     17 C          68.6299   91.7229   10.6418 C.3     1  UNL1        0.0542
     18 N          62.8868   86.3979   12.1005 N.3     1  UNL1       -0.2632
     19 C          63.6866   86.2371   13.3593 C.3     1  UNL1        0.0941
     20 C          64.1113   87.4468   14.1378 C.3     1  UNL1        0.1080
     21 N          63.7362   88.8175   13.6575 N.pl3   1  UNL1       -0.3034
     22 C          62.9364   88.9784   12.3987 C.3     1  UNL1        0.1080
     23 C          62.5117   87.7685   11.6203 C.3     1  UNL1        0.0941
     24 C          62.4621   85.1881   11.3221 C.3     1  UNL1        0.1424
     25 C          62.5818   80.1128   12.7740 C.3     1  UNL1        0.0978
     26 C          63.0128   81.4962   12.3860 C.ar    1  UNL1        0.2368
     27 N          62.1039   82.6395   12.0443 N.ar    1  UNL1       -0.1934
     28 C          62.9578   83.8290   11.7186 C.ar    1  UNL1        0.1966
     29 N          64.3943   83.4208   11.8590 N.ar    1  UNL1       -0.0592
     30 O          64.4283   81.9790   12.2715 O.2     1  UNL1       -0.3373
@<TRIPOS>BOND
     1    25    26    1
     2    26    27   ar
     3    27    28   ar
     4    28    24    1
     5    24    18    1
     6    18    19    1
     7    19    20    1
     8    20    21    1
     9    21     1    1
    10     1     2    2
    11     2     3    1
    12     2     4    1
    13     4     5    2
    14     5     6    1
    15     6     7    2
    16     7     8    1
    17     8    11    1
    18    11    12   ar
    19    12    13   ar
    20    13    14    1
    21    13    15   ar
    22    15    16   ar
    23    16    17    1
    24     8     9    2
    25     9    10    1
    26    21    22    1
    27    22    23    1
    28    28    29   ar
    29    29    30   ar
    30    30    26   ar
    31    23    18    1
    32    10     1    1
    33    10     6    1
    34    16    11   ar
@<TRIPOS>MOLECULE
*****
 30 34 0 0 0
SMALL
GASTEIGER

@<TRIPOS>ATOM
      1 C          62.4367   88.8631   11.4128 C.2     1  UNL1        0.1012
      2 C          61.7701   89.5570   10.2621 C.2     1  UNL1        0.1182
      3 CL         61.8206   91.0525   10.1572 Cl      1  UNL1       -0.0771
      4 C          61.0531   88.7555    9.2165 C.2     1  UNL1        0.2481
      5 N          61.0027   87.2600    9.3215 N.2     1  UNL1       -0.0293
      6 C          61.6692   86.5661   10.4722 C.2     1  UNL1        0.4105
      7 N          61.7860   85.1162   10.8385 N.2     1  UNL1        0.0121
      8 C          62.5752   85.0217   12.1106 C.2     1  UNL1        0.3778
      9 N          62.9462   86.4131   12.5305 N.2     1  UNL1       -0.0450
     10 C          62.3863   87.3676   11.5179 C.3     1  UNL1        0.3609
     11 C          62.9309   83.7576   12.8356 C.ar    1  UNL1        0.1220
     12 C          62.3892   82.3902   12.5413 C.ar    1  UNL1        0.1040
     13 N          63.0143   81.4265   13.5060 N.ar    1  UNL1       -0.2474
     14 C          62.7566   79.9501   13.5691 C.3     1  UNL1        0.1538
     15 N          63.9423   82.1983   14.3966 N.ar    1  UNL1       -0.1733
     16 C          63.8908   83.6391   13.9822 C.ar    1  UNL1        0.0879
     17 C          64.6634   84.7638   14.6051 C.3     1  UNL1        0.0542
     18 N          64.5879   91.2678   14.5498 N.3     1  UNL1       -0.2632
     19 C          64.6643   91.6761   13.1084 C.3     1  UNL1        0.0941
     20 C          63.9473   90.8746   12.0628 C.3     1  UNL1        0.1080
     21 N          63.1538   89.6646   12.4585 N.pl3   1  UNL1       -0.3034
     22 C          63.0773   89.2563   13.8998 C.3     1  UNL1        0.1080
     23 C          63.7944   90.0579   14.9454 C.3     1  UNL1        0.0941
     24 C          65.3049   92.0693   15.5954 C.3     1  UNL1        0.1424
     25 C          69.9835   94.4655   16.0958 C.3     1  UNL1        0.0978
     26 C          68.8930   93.5492   15.6253 C.ar    1  UNL1        0.2368
     27 N          67.4876   93.5100   16.1481 N.ar    1  UNL1       -0.1934
     28 C          66.7425   92.4478   15.3953 C.ar    1  UNL1        0.1966
     29 N          67.6875   91.8306   14.4073 N.ar    1  UNL1       -0.0592
     30 O          69.0165   92.5113   14.5495 O.2     1  UNL1       -0.3373
@<TRIPOS>BOND
     1    25    26    1
     2    26    27   ar
     3    27    28   ar
     4    28    24    1
     5    24    18    1
     6    18    19    1
     7    19    20    1
     8    20    21    1
     9    21     1    1
    10     1     2    2
    11     2     3    1
    12     2     4    1
    13     4     5    2
    14     5     6    1
    15     6     7    2
    16     7     8    1
    17     8    11    1
    18    11    12   ar
    19    12    13   ar
    20    13    14    1
    21    13    15   ar
    22    15    16   ar
    23    16    17    1
    24     8     9    2
    25     9    10    1
    26    21    22    1
    27    22    23    1
    28    28    29   ar
    29    29    30   ar
    30    30    26   ar
    31    23    18    1
    32    10     1    1
    33    10     6    1
    34    16    11   ar
@<TRIPOS>MOLECULE
*****
 30 34 0 0 0
SMALL
GASTEIGER

@<TRIPOS>ATOM
      1 C          62.6459   88.1376   11.5645 C.2     1  UNL1        0.1012
      2 C          61.7567   88.2374   10.3607 C.2     1  UNL1        0.1182
      3 CL         61.1513   86.9982    9.7707 Cl      1  UNL1       -0.0771
      4 C          61.4727   89.5762    9.7469 C.2     1  UNL1        0.2481
      5 N          62.0781   90.8154   10.3369 N.2     1  UNL1       -0.0293
      6 C          62.9673   90.7157   11.5407 C.2     1  UNL1        0.4105
      7 N          63.7003   91.7550   12.3360 N.2     1  UNL1        0.0121
      8 C          64.4372   91.0585   13.4413 C.2     1  UNL1        0.3778
      9 N          64.1597   89.5887   13.3292 N.2     1  UNL1       -0.0450
     10 C          63.2513   89.3768   12.1545 C.3     1  UNL1        0.3609
     11 C          65.3001   91.7163   14.4770 C.ar    1  UNL1        0.1220
     12 C          66.6164   92.3913   14.2285 C.ar    1  UNL1        0.1040
     13 N          67.1281   92.9068   15.5409 N.ar    1  UNL1       -0.2474
     14 C          68.4140   93.6484   15.7560 C.3     1  UNL1        0.1538
     15 N          66.1280   92.5504   16.6006 N.ar    1  UNL1       -0.1733
     16 C          64.9982   91.8146   15.9430 C.ar    1  UNL1        0.0879
     17 C          63.7804   91.2724   16.6308 C.3     1  UNL1        0.0542
     18 N          63.4978   84.1210   13.4060 N.3     1  UNL1       -0.2632
     19 C          63.9606   85.3731   14.0902 C.3     1  UNL1        0.0941
     20 C          63.6766   86.7119   13.4764 C.3     1  UNL1        0.1080
     21 N          62.9298   86.7988   12.1783 N.pl3   1  UNL1       -0.3034
     22 C          62.4670   85.5467   11.4941 C.3     1  UNL1        0.1080
     23 C          62.7510   84.2078   12.1080 C.3     1  UNL1        0.0941
     24 C          63.7817   82.7822   14.0198 C.3     1  UNL1        0.1424
     25 C          59.3028   80.0105   14.3924 C.3     1  UNL1        0.0978
     26 C          60.7161   80.4021   14.0773 C.ar    1  UNL1        0.2368
     27 N          61.3589   81.7186   14.3996 N.ar    1  UNL1       -0.1934
     28 C          62.7747   81.6761   13.9061 C.ar    1  UNL1        0.1966
     29 N          63.0070   80.3335   13.2788 N.ar    1  UNL1       -0.0592
     30 O          61.7347   79.5461   13.3847 O.2     1  UNL1       -0.3373
@<TRIPOS>BOND
     1    25    26    1
     2    26    27   ar
     3    27    28   ar
     4    28    24    1
     5    24    18    1
     6    18    19    1
     7    19    20    1
     8    20    21    1
     9    21     1    1
    10     1     2    2
    11     2     3    1
    12     2     4    1
    13     4     5    2
    14     5     6    1
    15     6     7    2
    16     7     8    1
    17     8    11    1
    18    11    12   ar
    19    12    13   ar
    20    13    14    1
    21    13    15   ar
    22    15    16   ar
    23    16    17    1
    24     8     9    2
    25     9    10    1
    26    21    22    1
    27    22    23    1
    28    28    29   ar
    29    29    30   ar
    30    30    26   ar
    31    23    18    1
    32    10     1    1
    33    10     6    1
    34    16    11   ar
@<TRIPOS>MOLECULE
*****
 30 34 0 0 0
SMALL
GASTEIGER

@<TRIPOS>ATOM
      1 C          62.3334   88.2592   11.4237 C.2     1  UNL1        0.1012
      2 C          61.1999   88.3126   10.4427 C.2     1  UNL1        0.1182
      3 CL         60.4629   87.0577   10.0793 Cl      1  UNL1       -0.0771
      4 C          60.8034   89.6208    9.8253 C.2     1  UNL1        0.2481
      5 N          61.5405   90.8757   10.1888 N.2     1  UNL1       -0.0293
      6 C          62.6740   90.8223   11.1697 C.2     1  UNL1        0.4105
      7 N          63.5786   91.8863   11.7171 N.2     1  UNL1        0.0121
      8 C          64.5341   91.2356   12.6728 C.2     1  UNL1        0.3778
      9 N          64.2201   89.7695   12.7162 N.2     1  UNL1       -0.0450
     10 C          63.0705   89.5140   11.7872 C.3     1  UNL1        0.3609
     11 C          65.6141   91.9292   13.4490 C.ar    1  UNL1        0.1220
     12 C          66.1964   91.4701   14.7529 C.ar    1  UNL1        0.1040
     13 N          67.2436   92.4608   15.1674 N.ar    1  UNL1       -0.2474
     14 C          68.0792   92.3922   16.4112 C.3     1  UNL1        0.1538
     15 N          67.3086   93.5323   14.1197 N.ar    1  UNL1       -0.1733
     16 C          66.3014   93.2037   13.0576 C.ar    1  UNL1        0.0879
     17 C          66.0294   94.0084   11.8213 C.3     1  UNL1        0.0542
     18 N          63.5229   84.3344   13.2761 N.3     1  UNL1       -0.2632
     19 C          63.8951   85.6236   13.9466 C.3     1  UNL1        0.0941
     20 C          63.4987   86.9318   13.3291 C.3     1  UNL1        0.1080
     21 N          62.7299   86.9509   12.0411 N.pl3   1  UNL1       -0.3034
     22 C          62.3576   85.6618   11.3707 C.3     1  UNL1        0.1080
     23 C          62.7542   84.3535   11.9883 C.3     1  UNL1        0.0941
     24 C          63.9193   83.0262   13.8936 C.3     1  UNL1        0.1424
     25 C          59.5695   80.0632   14.3185 C.3     1  UNL1        0.0978
     26 C          60.9786   80.4972   14.0429 C.ar    1  UNL1        0.2368
     27 N          61.5334   81.8753   14.2511 N.ar    1  UNL1       -0.1934
     28 C          62.9780   81.8592   13.8476 C.ar    1  UNL1        0.1966
     29 N          63.3160   80.4713   13.3901 N.ar    1  UNL1       -0.0592
     30 O          62.0804   79.6295   13.5108 O.2     1  UNL1       -0.3373
@<TRIPOS>BOND
     1    25    26    1
     2    26    27   ar
     3    27    28   ar
     4    28    24    1
     5    24    18    1
     6    18    19    1
     7    19    20    1
     8    20    21    1
     9    21     1    1
    10     1     2    2
    11     2     3    1
    12     2     4    1
    13     4     5    2
    14     5     6    1
    15     6     7    2
    16     7     8    1
    17     8    11    1
    18    11    12   ar
    19    12    13   ar
    20    13    14    1
    21    13    15   ar
    22    15    16   ar
    23    16    17    1
    24     8     9    2
    25     9    10    1
    26    21    22    1
    27    22    23    1
    28    28    29   ar
    29    29    30   ar
    30    30    26   ar
    31    23    18    1
    32    10     1    1
    33    10     6    1
    34    16    11   ar
@<TRIPOS>MOLECULE
*****
 30 34 0 0 0
SMALL
GASTEIGER

@<TRIPOS>ATOM
      1 C          61.8468   88.8486   10.4061 C.2     1  UNL1        0.1012
      2 C          60.8321   89.1827    9.3531 C.2     1  UNL1        0.1182
      3 CL         60.7165   90.5884    8.8423 Cl      1  UNL1       -0.0771
      4 C          59.9332   88.1114    8.8110 C.2     1  UNL1        0.2481
      5 N          60.0489   86.7058    9.3218 N.2     1  UNL1       -0.0293
      6 C          61.0635   86.3716   10.3748 C.2     1  UNL1        0.4105
      7 N          61.4063   85.0852   11.0660 N.2     1  UNL1        0.0121
      8 C          62.5171   85.3616   12.0353 C.2     1  UNL1        0.3778
      9 N          62.8609   86.8188   11.9432 N.2     1  UNL1       -0.0450
     10 C          61.9624   87.4430   10.9170 C.3     1  UNL1        0.3609
     11 C          63.1697   84.3572   12.9382 C.ar    1  UNL1        0.1220
     12 C          63.0778   82.8655   12.8099 C.ar    1  UNL1        0.1040
     13 N          63.8801   82.2545   13.9203 N.ar    1  UNL1       -0.2474
     14 C          64.0626   80.7871   14.1720 C.3     1  UNL1        0.1538
     15 N          64.4678   83.3685   14.7350 N.ar    1  UNL1       -0.1733
     16 C          64.0287   84.6681   14.1279 C.ar    1  UNL1        0.0879
     17 C          64.3860   86.0380   14.6237 C.3     1  UNL1        0.0542
     18 N          64.5436   92.0629   12.0327 N.3     1  UNL1       -0.2632
     19 C          63.9230   91.0629   12.9628 C.3     1  UNL1        0.0941
     20 C          63.0241   89.9915   12.4206 C.3     1  UNL1        0.1080
     21 N          62.7457   89.9200   10.9483 N.pl3   1  UNL1       -0.3034
     22 C          63.3663   90.9200   10.0183 C.3     1  UNL1        0.1080
     23 C          64.2653   91.9914   10.5606 C.3     1  UNL1        0.0941
     24 C          65.4425   93.1342   12.5749 C.3     1  UNL1        0.1424
     25 C          69.0924   92.4135   16.3220 C.3     1  UNL1        0.0978
     26 C          68.3954   92.4306   14.9938 C.ar    1  UNL1        0.2368
     27 N          67.0066   92.9342   14.7333 N.ar    1  UNL1       -0.1934
     28 C          66.7177   92.7619   13.2716 C.ar    1  UNL1        0.1966
     29 N          67.9279   92.1518   12.6286 N.ar    1  UNL1       -0.0592
     30 O          68.9647   91.9471   13.6930 O.2     1  UNL1       -0.3373
@<TRIPOS>BOND
     1    25    26    1
     2    26    27   ar
     3    27    28   ar
     4    28    24    1
     5    24    18    1
     6    18    19    1
     7    19    20    1
     8    20    21    1
     9    21     1    1
    10     1     2    2
    11     2     3    1
    12     2     4    1
    13     4     5    2
    14     5     6    1
    15     6     7    2
    16     7     8    1
    17     8    11    1
    18    11    12   ar
    19    12    13   ar
    20    13    14    1
    21    13    15   ar
    22    15    16   ar
    23    16    17    1
    24     8     9    2
    25     9    10    1
    26    21    22    1
    27    22    23    1
    28    28    29   ar
    29    29    30   ar
    30    30    26   ar
    31    23    18    1
    32    10     1    1
    33    10     6    1
    34    16    11   ar
@<TRIPOS>MOLECULE
*****
 30 34 0 0 0
SMALL
GASTEIGER

@<TRIPOS>ATOM
      1 C          61.7567   88.8159   10.4172 C.2     1  UNL1        0.1012
      2 C          60.6953   89.1691    9.4178 C.2     1  UNL1        0.1182
      3 CL         60.5811   90.5763    8.9109 Cl      1  UNL1       -0.0771
      4 C          59.7483   88.1153    8.9254 C.2     1  UNL1        0.2481
      5 N          59.8626   86.7081    9.4323 N.2     1  UNL1       -0.0293
      6 C          60.9240   86.3549   10.4317 C.2     1  UNL1        0.4105
      7 N          61.2768   85.0626   11.1066 N.2     1  UNL1        0.0121
      8 C          62.4420   85.3178   12.0161 C.2     1  UNL1        0.3778
      9 N          62.8092   86.7678   11.9033 N.2     1  UNL1       -0.0450
     10 C          61.8710   87.4088   10.9241 C.3     1  UNL1        0.3609
     11 C          63.1208   84.3015   12.8857 C.ar    1  UNL1        0.1220
     12 C          63.0580   82.8125   12.7153 C.ar    1  UNL1        0.1040
     13 N          63.8799   82.1864   13.8027 N.ar    1  UNL1       -0.2474
     14 C          64.0936   80.7164   14.0111 C.3     1  UNL1        0.1538
     15 N          64.4507   83.2884   14.6452 N.ar    1  UNL1       -0.1733
     16 C          63.9815   84.5957   14.0784 C.ar    1  UNL1        0.0879
     17 C          64.3146   85.9578   14.6109 C.3     1  UNL1        0.0542
     18 N          64.5979   91.9774   11.8945 N.3     1  UNL1       -0.2632
     19 C          63.9960   90.9997   12.8598 C.3     1  UNL1        0.0941
     20 C          63.0490   89.9459   12.3674 C.3     1  UNL1        0.1080
     21 N          62.7038   89.8697   10.9096 N.pl3   1  UNL1       -0.3034
     22 C          63.3057   90.8474    9.9443 C.3     1  UNL1        0.1080
     23 C          64.2528   91.9012   10.4368 C.3     1  UNL1        0.0941
     24 C          65.5449   93.0312   12.3869 C.3     1  UNL1        0.1424
     25 C          67.3926   96.8547    9.2487 C.3     1  UNL1        0.0978
     26 C          67.2448   95.5475    9.9694 C.ar    1  UNL1        0.2368
     27 N          66.1517   95.1904   10.9326 N.ar    1  UNL1       -0.1934
     28 C          66.3955   93.7901   11.4118 C.ar    1  UNL1        0.1966
     29 N          67.6392   93.2818   10.7449 N.ar    1  UNL1       -0.0592
     30 O          68.1641   94.3679    9.8534 O.2     1  UNL1       -0.3373
@<TRIPOS>BOND
     1    25    26    1
     2    26    27   ar
     3    27    28   ar
     4    28    24    1
     5    24    18    1
     6    18    19    1
     7    19    20    1
     8    20    21    1
     9    21     1    1
    10     1     2    2
    11     2     3    1
    12     2     4    1
    13     4     5    2
    14     5     6    1
    15     6     7    2
    16     7     8    1
    17     8    11    1
    18    11    12   ar
    19    12    13   ar
    20    13    14    1
    21    13    15   ar
    22    15    16   ar
    23    16    17    1
    24     8     9    2
    25     9    10    1
    26    21    22    1
    27    22    23    1
    28    28    29   ar
    29    29    30   ar
    30    30    26   ar
    31    23    18    1
    32    10     1    1
    33    10     6    1
    34    16    11   ar
