@<TRIPOS>MOLECULE
*****
 31 34 0 0 0
SMALL
GASTEIGER

@<TRIPOS>ATOM
      1 C          63.6936   89.1681   15.8261 C.ar    1  UNL1        0.0038
      2 C          64.2777   88.3656   14.7014 C.ar    1  UNL1        0.0965
      3 N          64.2947   86.8677   14.7786 N.ar    1  UNL1       -0.2274
      4 C          63.7275   86.1722   15.9806 C.ar    1  UNL1        0.1564
      5 C          63.1435   86.9747   17.1053 C.ar    1  UNL1        0.1710
      6 F          62.5763   86.2792   18.3072 F       1  UNL1       -0.2012
      7 C          63.1265   88.4726   17.0281 C.ar    1  UNL1        0.0301
      8 N          63.7445   84.6743   16.0578 N.pl3   1  UNL1       -0.3126
      9 H          64.5341   84.2088   16.4170 H       1  UNL1        0.1486
     10 C          62.5584   83.8856   15.5876 C.3     1  UNL1        0.1170
     11 C          62.6709   83.0150   14.3713 C.ar    1  UNL1        0.0166
     12 C          62.0305   81.6587   14.3579 C.ar    1  UNL1        0.0004
     13 C          62.1431   80.7881   13.1416 C.ar    1  UNL1        0.0228
     14 C          62.8961   81.2738   11.9387 C.ar    1  UNL1        0.1526
     15 N          63.5366   82.6302   11.9521 N.ar    1  UNL1       -0.2401
     16 C          63.4240   83.5007   13.1684 C.ar    1  UNL1        0.0961
     17 C          63.0087   80.4032   10.7224 C.3     1  UNL1        0.4348
     18 F          63.1212   79.5325    9.5061 F       1  UNL1       -0.1644
     19 F          63.4316   81.5916    9.9108 F       1  UNL1       -0.1644
     20 F          62.5857   79.2147   11.5341 F       1  UNL1       -0.1644
     21 C          63.6767   90.6660   15.7489 C.3     1  UNL1        0.0581
     22 C          63.1044   91.2188    9.9043 C.3     1  UNL1        0.0307
     23 C          64.0680   91.6062   10.9866 C.2     1  UNL1        0.0074
     24 C          65.3134   92.3688   10.6442 C.2     1  UNL1        0.2278
     25 N          66.2771   92.7562   11.7265 N.2     1  UNL1       -0.0314
     26 C          65.9953   92.3809   13.1511 C.2     1  UNL1        0.3716
     27 N          66.7546   92.6233   14.4219 N.2     1  UNL1       -0.0311
     28 C          65.9784   92.0103   15.5497 C.2     1  UNL1        0.2319
     29 C          64.7395   91.3892   14.9760 C.2     1  UNL1        0.0328
     30 C          64.7500   91.6183   13.4935 C.2     1  UNL1        0.0704
     31 C          63.7863   91.2309   12.4113 C.3     1  UNL1        0.0598
@<TRIPOS>BOND
     1    22    23    1
     2    23    24    2
     3    24    25    1
     4    25    26    2
     5    26    27    1
     6    27    28    2
     7    28    29    1
     8    29    21    1
     9    21     1    1
    10     1     2   ar
    11     2     3   ar
    12     3     4   ar
    13     4     8    1
    14     8    10    1
    15    10    11    1
    16    11    12   ar
    17    12    13   ar
    18    13    14   ar
    19    14    17    1
    20    17    18    1
    21    17    19    1
    22    17    20    1
    23    14    15   ar
    24    15    16   ar
    25     4     5   ar
    26     5     6    1
    27     5     7   ar
    28    29    30    2
    29    30    31    1
    30    31    23    1
    31    30    26    1
    32     7     1   ar
    33    16    11   ar
    34     8     9    1
@<TRIPOS>MOLECULE
*****
 31 34 0 0 0
SMALL
GASTEIGER

@<TRIPOS>ATOM
      1 C          62.7347   84.9763   10.0582 C.ar    1  UNL1        0.0038
      2 C          61.9758   85.3081   11.3087 C.ar    1  UNL1        0.0965
      3 N          62.2018   84.5089   12.5577 N.ar    1  UNL1       -0.2274
      4 C          63.1870   83.3777   12.5563 C.ar    1  UNL1        0.1564
      5 C          63.9460   83.0459   11.3057 C.ar    1  UNL1        0.1710
      6 F          64.9311   81.9147   11.3042 F       1  UNL1       -0.2012
      7 C          63.7199   83.8451   10.0567 C.ar    1  UNL1        0.0301
      8 N          63.4130   82.5784   13.8053 N.pl3   1  UNL1       -0.3126
      9 H          63.0613   81.6614   13.8733 H       1  UNL1        0.1486
     10 C          64.1750   83.1763   14.9507 C.3     1  UNL1        0.1170
     11 C          63.9723   84.6171   15.3156 C.ar    1  UNL1        0.0166
     12 C          64.8068   85.6802   14.6650 C.ar    1  UNL1        0.0004
     13 C          64.6041   87.1209   15.0299 C.ar    1  UNL1        0.0228
     14 C          63.5668   87.4986   16.0455 C.ar    1  UNL1        0.1526
     15 N          62.7322   86.4354   16.6961 N.ar    1  UNL1       -0.2401
     16 C          62.9350   84.9948   16.3312 C.ar    1  UNL1        0.0961
     17 C          63.3641   88.9393   16.4104 C.3     1  UNL1        0.4348
     18 F          63.1613   90.3801   16.7753 F       1  UNL1       -0.1644
     19 F          63.5372   89.3280   14.9720 F       1  UNL1       -0.1644
     20 F          63.1910   88.5506   17.8488 F       1  UNL1       -0.1644
     21 C          62.5086   85.7756    8.8092 C.3     1  UNL1        0.0581
     22 C          63.2401   90.6712   12.0170 C.3     1  UNL1        0.0307
     23 C          62.2319   90.0747   11.0802 C.2     1  UNL1        0.0074
     24 C          60.9732   90.8238   10.7570 C.2     1  UNL1        0.2278
     25 N          59.9649   90.2273    9.8202 N.2     1  UNL1       -0.0314
     26 C          60.2153   88.8817    9.2066 C.2     1  UNL1        0.3716
     27 N          59.4102   88.0468    8.2555 N.2     1  UNL1       -0.0311
     28 C          60.1713   86.7816    7.9908 C.2     1  UNL1        0.2319
     29 C          61.4468   86.8346    8.7784 C.2     1  UNL1        0.0328
     30 C          61.4739   88.1326    9.5298 C.2     1  UNL1        0.0704
     31 C          62.4822   88.7291   10.4666 C.3     1  UNL1        0.0598
@<TRIPOS>BOND
     1    22    23    1
     2    23    24    2
     3    24    25    1
     4    25    26    2
     5    26    27    1
     6    27    28    2
     7    28    29    1
     8    29    21    1
     9    21     1    1
    10     1     2   ar
    11     2     3   ar
    12     3     4   ar
    13     4     8    1
    14     8    10    1
    15    10    11    1
    16    11    12   ar
    17    12    13   ar
    18    13    14   ar
    19    14    17    1
    20    17    18    1
    21    17    19    1
    22    17    20    1
    23    14    15   ar
    24    15    16   ar
    25     4     5   ar
    26     5     6    1
    27     5     7   ar
    28    29    30    2
    29    30    31    1
    30    31    23    1
    31    30    26    1
    32     7     1   ar
    33    16    11   ar
    34     8     9    1
@<TRIPOS>MOLECULE
*****
 31 34 0 0 0
SMALL
GASTEIGER

@<TRIPOS>ATOM
      1 C          63.2115   84.3976   14.6311 C.ar    1  UNL1        0.0038
      2 C          62.2297   84.6219   15.7428 C.ar    1  UNL1        0.0965
      3 N          62.2759   85.8920   16.5394 N.ar    1  UNL1       -0.2274
      4 C          63.3039   86.9379   16.2244 C.ar    1  UNL1        0.1564
      5 C          64.2857   86.7137   15.1126 C.ar    1  UNL1        0.1710
      6 F          65.3137   87.7596   14.7976 F       1  UNL1       -0.2012
      7 C          64.2395   85.4435   14.3160 C.ar    1  UNL1        0.0301
      8 N          63.3501   88.2081   17.0210 N.pl3   1  UNL1       -0.3126
      9 H          63.7696   88.2155   17.9117 H       1  UNL1        0.1486
     10 C          62.7572   89.4668   16.4607 C.3     1  UNL1        0.1170
     11 C          63.4671   90.2079   15.3667 C.ar    1  UNL1        0.0166
     12 C          63.1411   89.9194   13.9313 C.ar    1  UNL1        0.0004
     13 C          63.8511   90.6605   12.8373 C.ar    1  UNL1        0.0228
     14 C          64.8870   91.6902   13.1788 C.ar    1  UNL1        0.1526
     15 N          65.2130   91.9787   14.6143 N.ar    1  UNL1       -0.2401
     16 C          64.5031   91.2376   15.7081 C.ar    1  UNL1        0.0961
     17 C          65.5970   92.4313   12.0848 C.3     1  UNL1        0.4348
     18 F          66.3069   93.1724   10.9908 F       1  UNL1       -0.1644
     19 F          66.6630   92.8437   13.0560 F       1  UNL1       -0.1644
     20 F          64.5308   92.0188   11.1136 F       1  UNL1       -0.1644
     21 C          63.1653   83.1275   13.8345 C.3     1  UNL1        0.0581
     22 C          60.7949   87.1593   10.2404 C.3     1  UNL1        0.0307
     23 C          61.7650   86.0172   10.1732 C.2     1  UNL1        0.0074
     24 C          62.4182   85.6637    8.8700 C.2     1  UNL1        0.2278
     25 N          63.3883   84.5217    8.8028 N.2     1  UNL1       -0.0314
     26 C          63.7052   83.7331   10.0388 C.2     1  UNL1        0.3716
     27 N          64.6137   82.5637   10.2779 N.2     1  UNL1       -0.0311
     28 C          64.5221   82.1945   11.7288 C.2     1  UNL1        0.2319
     29 C          63.5569   83.1357   12.3865 C.2     1  UNL1        0.0328
     30 C          63.0520   84.0866   11.3419 C.2     1  UNL1        0.0704
     31 C          62.0819   85.2287   11.4092 C.3     1  UNL1        0.0598
@<TRIPOS>BOND
     1    22    23    1
     2    23    24    2
     3    24    25    1
     4    25    26    2
     5    26    27    1
     6    27    28    2
     7    28    29    1
     8    29    21    1
     9    21     1    1
    10     1     2   ar
    11     2     3   ar
    12     3     4   ar
    13     4     8    1
    14     8    10    1
    15    10    11    1
    16    11    12   ar
    17    12    13   ar
    18    13    14   ar
    19    14    17    1
    20    17    18    1
    21    17    19    1
    22    17    20    1
    23    14    15   ar
    24    15    16   ar
    25     4     5   ar
    26     5     6    1
    27     5     7   ar
    28    29    30    2
    29    30    31    1
    30    31    23    1
    31    30    26    1
    32     7     1   ar
    33    16    11   ar
    34     8     9    1
@<TRIPOS>MOLECULE
*****
 31 34 0 0 0
SMALL
GASTEIGER

@<TRIPOS>ATOM
      1 C          63.5674   88.3887   15.9316 C.ar    1  UNL1        0.0038
      2 C          62.7554   87.5351   16.8600 C.ar    1  UNL1        0.0965
      3 N          62.9127   86.0436   16.8382 N.ar    1  UNL1       -0.2274
      4 C          63.8822   85.4055   15.8879 C.ar    1  UNL1        0.1564
      5 C          64.6942   86.2591   14.9594 C.ar    1  UNL1        0.1710
      6 F          65.6636   85.6210   14.0091 F       1  UNL1       -0.2012
      7 C          64.5369   87.7506   14.9812 C.ar    1  UNL1        0.0301
      8 N          64.0395   83.9139   15.8661 N.pl3   1  UNL1       -0.3126
      9 H          64.6201   83.4705   16.5261 H       1  UNL1        0.1486
     10 C          63.3123   83.0980   14.8388 C.3     1  UNL1        0.1170
     11 C          63.2400   83.5728   13.4178 C.ar    1  UNL1        0.0166
     12 C          62.3223   84.7007   13.0496 C.ar    1  UNL1        0.0004
     13 C          62.2501   85.1755   11.6286 C.ar    1  UNL1        0.0228
     14 C          63.0956   84.5225   10.5757 C.ar    1  UNL1        0.1526
     15 N          64.0134   83.3945   10.9439 N.ar    1  UNL1       -0.2401
     16 C          64.0856   82.9198   12.3649 C.ar    1  UNL1        0.0961
     17 C          63.0234   84.9973    9.1546 C.3     1  UNL1        0.4348
     18 F          62.9511   85.4721    7.7336 F       1  UNL1       -0.1644
     19 F          62.2920   86.2278    9.6030 F       1  UNL1       -0.1644
     20 F          63.7548   83.7668    8.7064 F       1  UNL1       -0.1644
     21 C          63.4101   89.8802   15.9534 C.3     1  UNL1        0.0581
     22 C          61.7396   89.6225   10.3023 C.3     1  UNL1        0.0307
     23 C          62.7543   90.3321   11.1490 C.2     1  UNL1        0.0074
     24 C          63.7082   91.3039   10.5201 C.2     1  UNL1        0.2278
     25 N          64.7229   92.0135   11.3668 N.2     1  UNL1       -0.0314
     26 C          64.7837   91.7513   12.8424 C.2     1  UNL1        0.3716
     27 N          65.6689   92.2972   13.9233 N.2     1  UNL1       -0.0311
     28 C          65.2621   91.6627   15.2202 C.2     1  UNL1        0.2319
     29 C          64.1255   90.7247   14.9409 C.2     1  UNL1        0.0328
     30 C          63.8297   90.7794   13.4713 C.2     1  UNL1        0.0704
     31 C          62.8151   90.0699   12.6246 C.3     1  UNL1        0.0598
@<TRIPOS>BOND
     1    22    23    1
     2    23    24    2
     3    24    25    1
     4    25    26    2
     5    26    27    1
     6    27    28    2
     7    28    29    1
     8    29    21    1
     9    21     1    1
    10     1     2   ar
    11     2     3   ar
    12     3     4   ar
    13     4     8    1
    14     8    10    1
    15    10    11    1
    16    11    12   ar
    17    12    13   ar
    18    13    14   ar
    19    14    17    1
    20    17    18    1
    21    17    19    1
    22    17    20    1
    23    14    15   ar
    24    15    16   ar
    25     4     5   ar
    26     5     6    1
    27     5     7   ar
    28    29    30    2
    29    30    31    1
    30    31    23    1
    31    30    26    1
    32     7     1   ar
    33    16    11   ar
    34     8     9    1
@<TRIPOS>MOLECULE
*****
 31 34 0 0 0
SMALL
GASTEIGER

@<TRIPOS>ATOM
      1 C          63.6124   88.6167   15.8238 C.ar    1  UNL1        0.0038
      2 C          62.7995   87.9536   16.8959 C.ar    1  UNL1        0.0965
      3 N          62.7396   86.4569   16.9741 N.ar    1  UNL1       -0.2274
      4 C          63.4927   85.6231   15.9803 C.ar    1  UNL1        0.1564
      5 C          64.3056   86.2863   14.9081 C.ar    1  UNL1        0.1710
      6 F          65.0587   85.4525   13.9143 F       1  UNL1       -0.2012
      7 C          64.3655   87.7830   14.8299 C.ar    1  UNL1        0.0301
      8 N          63.4328   84.1264   16.0585 N.pl3   1  UNL1       -0.3126
      9 H          64.1594   83.6269   16.4965 H       1  UNL1        0.1486
     10 C          62.2658   83.3907   15.4695 C.3     1  UNL1        0.1170
     11 C          62.4460   82.5710   14.2263 C.ar    1  UNL1        0.0166
     12 C          62.1975   81.0922   14.2603 C.ar    1  UNL1        0.0004
     13 C          62.3777   80.2725   13.0171 C.ar    1  UNL1        0.0228
     14 C          62.8065   80.9317   11.7398 C.ar    1  UNL1        0.1526
     15 N          63.0551   82.4106   11.7057 N.ar    1  UNL1       -0.2401
     16 C          62.8748   83.2302   12.9490 C.ar    1  UNL1        0.0961
     17 C          62.9867   80.1120   10.4965 C.3     1  UNL1        0.4348
     18 F          63.1669   79.2923    9.2533 F       1  UNL1       -0.1644
     19 F          63.3858   81.3451    9.7414 F       1  UNL1       -0.1644
     20 F          62.5876   78.8789   11.2518 F       1  UNL1       -0.1644
     21 C          63.6723   90.1134   15.7455 C.3     1  UNL1        0.0581
     22 C          69.0366   92.5502   16.0255 C.3     1  UNL1        0.0307
     23 C          67.9343   92.3573   15.0267 C.2     1  UNL1        0.0074
     24 C          68.0861   92.8854   13.6309 C.2     1  UNL1        0.2278
     25 N          66.9838   92.6925   12.6321 N.2     1  UNL1       -0.0314
     26 C          65.7297   91.9716   13.0289 C.2     1  UNL1        0.3716
     27 N          64.4827   91.6330   12.2671 N.2     1  UNL1       -0.0311
     28 C          63.5602   90.8957   13.1920 C.2     1  UNL1        0.2319
     29 C          64.2371   90.7786   14.5255 C.2     1  UNL1        0.0328
     30 C          65.5779   91.4436   14.4247 C.2     1  UNL1        0.0704
     31 C          66.6802   91.6365   15.4235 C.3     1  UNL1        0.0598
@<TRIPOS>BOND
     1    22    23    1
     2    23    24    2
     3    24    25    1
     4    25    26    2
     5    26    27    1
     6    27    28    2
     7    28    29    1
     8    29    21    1
     9    21     1    1
    10     1     2   ar
    11     2     3   ar
    12     3     4   ar
    13     4     8    1
    14     8    10    1
    15    10    11    1
    16    11    12   ar
    17    12    13   ar
    18    13    14   ar
    19    14    17    1
    20    17    18    1
    21    17    19    1
    22    17    20    1
    23    14    15   ar
    24    15    16   ar
    25     4     5   ar
    26     5     6    1
    27     5     7   ar
    28    29    30    2
    29    30    31    1
    30    31    23    1
    31    30    26    1
    32     7     1   ar
    33    16    11   ar
    34     8     9    1
@<TRIPOS>MOLECULE
*****
 31 34 0 0 0
SMALL
GASTEIGER

@<TRIPOS>ATOM
      1 C          63.6873   87.9334   15.8024 C.ar    1  UNL1        0.0038
      2 C          62.7619   87.1010   16.6394 C.ar    1  UNL1        0.0965
      3 N          62.8708   85.6051   16.6162 N.ar    1  UNL1       -0.2274
      4 C          63.9051   84.9416   15.7560 C.ar    1  UNL1        0.1564
      5 C          64.8306   85.7741   14.9189 C.ar    1  UNL1        0.1710
      6 F          65.8649   85.1106   14.0587 F       1  UNL1       -0.2012
      7 C          64.7217   87.2699   14.9421 C.ar    1  UNL1        0.0301
      8 N          64.0139   83.4457   15.7329 N.pl3   1  UNL1       -0.3126
      9 H          64.4997   82.9764   16.4491 H       1  UNL1        0.1486
     10 C          63.3827   82.6650   14.6184 C.3     1  UNL1        0.1170
     11 C          63.2803   83.2643   13.2472 C.ar    1  UNL1        0.0166
     12 C          64.1125   82.7174   12.1255 C.ar    1  UNL1        0.0004
     13 C          64.0100   83.3167   10.7542 C.ar    1  UNL1        0.0228
     14 C          63.0753   84.4630   10.5046 C.ar    1  UNL1        0.1526
     15 N          62.2431   85.0100   11.6264 N.ar    1  UNL1       -0.2401
     16 C          62.3456   84.4107   12.9976 C.ar    1  UNL1        0.0961
     17 C          62.9729   85.0624    9.1334 C.3     1  UNL1        0.4348
     18 F          62.8704   85.6617    7.7622 F       1  UNL1       -0.1644
     19 F          62.3306   86.2861    9.7163 F       1  UNL1       -0.1644
     20 F          63.6152   83.8385    8.5506 F       1  UNL1       -0.1644
     21 C          63.5785   89.4292   15.8255 C.3     1  UNL1        0.0581
     22 C          67.8813   93.4616   15.6932 C.3     1  UNL1        0.0307
     23 C          66.8249   92.9067   14.7842 C.2     1  UNL1        0.0074
     24 C          66.6899   93.4289   13.3846 C.2     1  UNL1        0.2278
     25 N          65.6335   92.8740   12.4757 N.2     1  UNL1       -0.0314
     26 C          64.7122   91.7969   12.9664 C.2     1  UNL1        0.3716
     27 N          63.5845   91.0621   12.3043 N.2     1  UNL1       -0.0311
     28 C          63.0225   90.0857   13.2947 C.2     1  UNL1        0.2319
     29 C          63.8029   90.2171   14.5690 C.2     1  UNL1        0.0328
     30 C          64.8472   91.2746   14.3660 C.2     1  UNL1        0.0704
     31 C          65.9036   91.8296   15.2749 C.3     1  UNL1        0.0598
@<TRIPOS>BOND
     1    22    23    1
     2    23    24    2
     3    24    25    1
     4    25    26    2
     5    26    27    1
     6    27    28    2
     7    28    29    1
     8    29    21    1
     9    21     1    1
    10     1     2   ar
    11     2     3   ar
    12     3     4   ar
    13     4     8    1
    14     8    10    1
    15    10    11    1
    16    11    12   ar
    17    12    13   ar
    18    13    14   ar
    19    14    17    1
    20    17    18    1
    21    17    19    1
    22    17    20    1
    23    14    15   ar
    24    15    16   ar
    25     4     5   ar
    26     5     6    1
    27     5     7   ar
    28    29    30    2
    29    30    31    1
    30    31    23    1
    31    30    26    1
    32     7     1   ar
    33    16    11   ar
    34     8     9    1
@<TRIPOS>MOLECULE
*****
 31 34 0 0 0
SMALL
GASTEIGER

@<TRIPOS>ATOM
      1 C          63.5390   87.1269   13.1206 C.ar    1  UNL1        0.0038
      2 C          64.2595   87.2830   14.4269 C.ar    1  UNL1        0.0965
      3 N          64.4907   88.6509   14.9972 N.ar    1  UNL1       -0.2274
      4 C          64.0014   89.8629   14.2613 C.ar    1  UNL1        0.1564
      5 C          63.2808   89.7068   12.9549 C.ar    1  UNL1        0.1710
      6 F          62.7914   90.9188   12.2190 F       1  UNL1       -0.2012
      7 C          63.0496   88.3389   12.3846 C.ar    1  UNL1        0.0301
      8 N          64.2326   91.2308   14.8316 N.pl3   1  UNL1       -0.3126
      9 H          63.4937   91.7137   15.2675 H       1  UNL1        0.1486
     10 C          65.5896   91.8629   14.7379 C.3     1  UNL1        0.1170
     11 C          66.2278   92.0737   13.3968 C.ar    1  UNL1        0.0166
     12 C          65.4091   92.5849   12.2486 C.ar    1  UNL1        0.0004
     13 C          66.0472   92.7956   10.9076 C.ar    1  UNL1        0.0228
     14 C          67.5041   92.4951   10.7147 C.ar    1  UNL1        0.1526
     15 N          68.3228   91.9838   11.8630 N.ar    1  UNL1       -0.2401
     16 C          67.6846   91.7731   13.2039 C.ar    1  UNL1        0.0961
     17 C          68.1422   92.7058    9.3737 C.3     1  UNL1        0.4348
     18 F          68.7804   92.9165    8.0327 F       1  UNL1       -0.1644
     19 F          68.0062   91.2414    9.0789 F       1  UNL1       -0.1644
     20 F          68.2782   94.1703    9.6686 F       1  UNL1       -0.1644
     21 C          63.3078   85.7590   12.5503 C.3     1  UNL1        0.0581
     22 C          63.0342   80.3305   10.2593 C.3     1  UNL1        0.0307
     23 C          62.9598   80.9950   11.6021 C.2     1  UNL1        0.0074
     24 C          62.7572   80.1688   12.8375 C.2     1  UNL1        0.2278
     25 N          62.6828   80.8332   14.1803 N.2     1  UNL1       -0.0314
     26 C          62.8109   82.3239   14.2876 C.2     1  UNL1        0.3716
     27 N          62.7778   83.2519   15.4655 N.2     1  UNL1       -0.0311
     28 C          62.9599   84.6517   14.9581 C.2     1  UNL1        0.2319
     29 C          63.1055   84.5888   13.4666 C.2     1  UNL1        0.0328
     30 C          63.0135   83.1500   13.0521 C.2     1  UNL1        0.0704
     31 C          63.0879   82.4856   11.7094 C.3     1  UNL1        0.0598
@<TRIPOS>BOND
     1    22    23    1
     2    23    24    2
     3    24    25    1
     4    25    26    2
     5    26    27    1
     6    27    28    2
     7    28    29    1
     8    29    21    1
     9    21     1    1
    10     1     2   ar
    11     2     3   ar
    12     3     4   ar
    13     4     8    1
    14     8    10    1
    15    10    11    1
    16    11    12   ar
    17    12    13   ar
    18    13    14   ar
    19    14    17    1
    20    17    18    1
    21    17    19    1
    22    17    20    1
    23    14    15   ar
    24    15    16   ar
    25     4     5   ar
    26     5     6    1
    27     5     7   ar
    28    29    30    2
    29    30    31    1
    30    31    23    1
    31    30    26    1
    32     7     1   ar
    33    16    11   ar
    34     8     9    1
@<TRIPOS>MOLECULE
*****
 31 34 0 0 0
SMALL
GASTEIGER

@<TRIPOS>ATOM
      1 C          62.0863   86.8977   10.5935 C.ar    1  UNL1        0.0038
      2 C          62.8841   87.1531   11.8378 C.ar    1  UNL1        0.0965
      3 N          63.1295   88.5602   12.2958 N.ar    1  UNL1       -0.2274
      4 C          62.5771   89.7120   11.5095 C.ar    1  UNL1        0.1564
      5 C          61.7793   89.4566   10.2652 C.ar    1  UNL1        0.1710
      6 F          61.2269   90.6084    9.4789 F       1  UNL1       -0.2012
      7 C          61.5339   88.0495    9.8071 C.ar    1  UNL1        0.0301
      8 N          62.8225   91.1191   11.9676 N.pl3   1  UNL1       -0.3126
      9 H          62.1717   91.5659   12.5558 H       1  UNL1        0.1486
     10 C          64.0597   91.8454   11.5294 C.3     1  UNL1        0.1170
     11 C          65.1531   92.1275   12.5168 C.ar    1  UNL1        0.0166
     12 C          65.4549   91.1395   13.6042 C.ar    1  UNL1        0.0004
     13 C          66.5483   91.4215   14.5916 C.ar    1  UNL1        0.0228
     14 C          67.3400   92.6917   14.4915 C.ar    1  UNL1        0.1526
     15 N          67.0381   93.6798   13.4039 N.ar    1  UNL1       -0.2401
     16 C          65.9447   93.3977   12.4167 C.ar    1  UNL1        0.0961
     17 C          68.4334   92.9738   15.4788 C.3     1  UNL1        0.4348
     18 F          69.5268   93.2558   16.4662 F       1  UNL1       -0.1644
     19 F          69.4520   92.4940   14.4878 F       1  UNL1       -0.1644
     20 F          67.4146   93.4536   16.4698 F       1  UNL1       -0.1644
     21 C          61.8409   85.4906   10.1354 C.3     1  UNL1        0.0581
     22 C          62.3524   83.7620   15.7517 C.3     1  UNL1        0.0307
     23 C          62.9445   83.4388   14.4120 C.2     1  UNL1        0.0074
     24 C          63.9986   82.3782   14.2940 C.2     1  UNL1        0.2278
     25 N          64.5908   82.0550   12.9543 N.2     1  UNL1       -0.0314
     26 C          64.1287   82.7923   11.7325 C.2     1  UNL1        0.3716
     27 N          64.5259   82.6920   10.2895 N.2     1  UNL1       -0.0311
     28 C          63.7172   83.6905    9.5156 C.2     1  UNL1        0.2319
     29 C          62.8202   84.4080   10.4803 C.2     1  UNL1        0.0328
     30 C          63.0746   83.8529   11.8504 C.2     1  UNL1        0.0704
     31 C          62.4825   84.1761   13.1901 C.3     1  UNL1        0.0598
@<TRIPOS>BOND
     1    22    23    1
     2    23    24    2
     3    24    25    1
     4    25    26    2
     5    26    27    1
     6    27    28    2
     7    28    29    1
     8    29    21    1
     9    21     1    1
    10     1     2   ar
    11     2     3   ar
    12     3     4   ar
    13     4     8    1
    14     8    10    1
    15    10    11    1
    16    11    12   ar
    17    12    13   ar
    18    13    14   ar
    19    14    17    1
    20    17    18    1
    21    17    19    1
    22    17    20    1
    23    14    15   ar
    24    15    16   ar
    25     4     5   ar
    26     5     6    1
    27     5     7   ar
    28    29    30    2
    29    30    31    1
    30    31    23    1
    31    30    26    1
    32     7     1   ar
    33    16    11   ar
    34     8     9    1
@<TRIPOS>MOLECULE
*****
 31 34 0 0 0
SMALL
GASTEIGER

@<TRIPOS>ATOM
      1 C          63.9537   91.7449   11.0764 C.ar    1  UNL1        0.0038
      2 C          63.0333   91.3098    9.9748 C.ar    1  UNL1        0.0965
      3 N          61.9944   90.2599   10.2362 N.ar    1  UNL1       -0.2274
      4 C          61.8758   89.6451   11.5993 C.ar    1  UNL1        0.1564
      5 C          62.7962   90.0803   12.7009 C.ar    1  UNL1        0.1710
      6 F          62.6775   89.4656   14.0640 F       1  UNL1       -0.2012
      7 C          63.8351   91.1302   12.4395 C.ar    1  UNL1        0.0301
      8 N          60.8368   88.5952   11.8607 N.pl3   1  UNL1       -0.3126
      9 H          60.7706   88.1791   12.7504 H       1  UNL1        0.1486
     10 C          59.8989   88.1795   10.7665 C.3     1  UNL1        0.1170
     11 C          60.3784   87.2731    9.6717 C.ar    1  UNL1        0.0166
     12 C          61.7857   86.7544    9.6899 C.ar    1  UNL1        0.0004
     13 C          62.2652   85.8480    8.5952 C.ar    1  UNL1        0.0228
     14 C          61.3374   85.4602    7.4822 C.ar    1  UNL1        0.1526
     15 N          59.9300   85.9790    7.4640 N.ar    1  UNL1       -0.2401
     16 C          59.4506   86.8854    8.5587 C.ar    1  UNL1        0.0961
     17 C          61.8169   84.5538    6.3874 C.3     1  UNL1        0.4348
     18 F          62.2965   83.6474    5.2927 F       1  UNL1       -0.1644
     19 F          63.2374   84.8216    6.7879 F       1  UNL1       -0.1644
     20 F          60.3963   84.2861    5.9869 F       1  UNL1       -0.1644
     21 C          64.9926   92.7948   10.8150 C.3     1  UNL1        0.0581
     22 C          66.8420   92.6945   16.4151 C.3     1  UNL1        0.0307
     23 C          67.4033   92.5076   15.0366 C.2     1  UNL1        0.0074
     24 C          68.8591   92.1953   14.8556 C.2     1  UNL1        0.2278
     25 N          69.4204   92.0084   13.4772 N.2     1  UNL1       -0.0314
     26 C          68.5257   92.1338   12.2798 C.2     1  UNL1        0.3716
     27 N          68.7925   92.0035   10.8094 N.2     1  UNL1       -0.0311
     28 C          67.5014   92.2353   10.0817 C.2     1  UNL1        0.2319
     29 C          66.4367   92.5088   11.1023 C.2     1  UNL1        0.0328
     30 C          67.0698   92.4461   12.4608 C.2     1  UNL1        0.0704
     31 C          66.5086   92.6329   13.8392 C.3     1  UNL1        0.0598
@<TRIPOS>BOND
     1    22    23    1
     2    23    24    2
     3    24    25    1
     4    25    26    2
     5    26    27    1
     6    27    28    2
     7    28    29    1
     8    29    21    1
     9    21     1    1
    10     1     2   ar
    11     2     3   ar
    12     3     4   ar
    13     4     8    1
    14     8    10    1
    15    10    11    1
    16    11    12   ar
    17    12    13   ar
    18    13    14   ar
    19    14    17    1
    20    17    18    1
    21    17    19    1
    22    17    20    1
    23    14    15   ar
    24    15    16   ar
    25     4     5   ar
    26     5     6    1
    27     5     7   ar
    28    29    30    2
    29    30    31    1
    30    31    23    1
    31    30    26    1
    32     7     1   ar
    33    16    11   ar
    34     8     9    1
